Network_08R-373/scenario_195/case.raw
0,100.0,33,0,1,60.0
GRID OPTIMIZATION COMPETITION
INPUT DATA FILES ARE RAW ROP INL CON
1,'A1',230.0,1,1,1,1,1.04068,41.468,1.05,0.95,1.1,0.9
2,'A2',1.0,1,1,1,1,1.05154,47.96,1.06544,0.95,1.1,0.9
3,'A3',115.0,1,1,1,1,1.03439,48.9883,1.05,0.95,1.1,0.9
4,'A4',115.0,1,1,1,1,1.03668,48.7697,1.05,0.95,1.1,0.9
5,'A5',115.0,1,1,1,1,1.04617,31.657,1.05,0.95,1.1,0.9
6,'A6',230.0,1,1,1,1,1.01367,26.0531,1.05,0.95,1.1,0.9
7,'A7',115.0,1,1,1,1,1.04092,50.1095,1.05,0.95,1.1,0.9
8,'A8',115.0,1,1,1,1,1.04195,38.1777,1.05,0.95,1.1,0.9
9,'A9',115.0,2,1,1,1,1.0,35.6302,1.05,0.95,1.1,0.9
10,'A10',115.0,1,1,1,1,1.03957,40.8004,1.05,0.95,1.1,0.9
11,'A11',115.0,1,1,1,1,1.03516,27.1435,1.05,0.95,1.1,0.9
12,'A12',230.0,1,1,1,1,1.01385,25.166,1.05,0.95,1.1,0.9
13,'A13',230.0,1,1,1,1,1.03637,48.7255,1.05,0.95,1.1,0.9
14,'A14',345.0,1,1,1,1,1.05154,47.96,1.06544,0.95,1.1,0.9
15,'A15',115.0,1,1,1,1,1.03663,48.77,1.05,0.95,1.1,0.9
16,'A16',230.0,1,1,1,1,1.004,24.4205,1.05,0.95,1.1,0.9
17,'A17',230.0,1,1,1,1,1.02288,33.083,1.05,0.95,1.1,0.9
18,'A18',230.0,1,1,1,1,1.01727,28.1285,1.05,0.95,1.1,0.9
19,'A19',500.0,1,1,1,1,1.06451,47.9342,1.07859,0.95,1.1,0.9
20,'A20',1.0,1,1,1,1,1.05154,47.96,1.06544,0.95,1.1,0.9
21,'A21',22.8,2,1,1,1,1.03094,52.0597,1.05,0.95,1.1,0.9
22,'A22',230.0,1,1,1,1,1.03999,35.1383,1.05,0.95,1.1,0.9
23,'A23',345.0,2,1,1,1,1.03065,27.8632,1.05,0.95,1.1,0.9
24,'A24',138.0,1,1,1,1,1.02868,49.015,1.05,0.95,1.1,0.9
25,'A25',21.0,2,1,1,1,1.0,56.9405,1.05,0.95,1.1,0.9
26,'A26',230.0,1,1,1,1,1.04918,32.0672,1.05,0.95,1.1,0.9
27,'A27',115.0,2,1,1,1,1.0361,25.4328,1.05,0.95,1.1,0.9
28,'A28',115.0,1,1,1,1,1.05248,48.479,1.06652,0.95,1.1,0.9
29,'A29',115.0,1,1,1,1,1.03956,40.7961,1.05,0.95,1.1,0.9
30,'A30',161.0,1,1,1,1,1.01813,28.4172,1.05,0.95,1.1,0.9
31,'A31',230.0,1,1,1,1,1.04092,41.6575,1.05,0.95,1.1,0.9
32,'A32',161.0,1,1,1,1,1.01649,26.1069,1.05,0.95,1.1,0.9
33,'A33',115.0,1,1,1,1,1.04245,49.3855,1.05,0.95,1.1,0.9
34,'A34',115.0,1,1,1,1,1.0406,40.0669,1.05,0.95,1.1,0.9
35,'A35',230.0,1,1,1,1,1.01346,26.1158,1.05,0.95,1.1,0.9
36,'A36',138.0,1,1,1,1,1.03089,48.9901,1.05,0.95,1.1,0.9
37,'A37',230.0,1,1,1,1,1.0421,49.9038,1.05,0.95,1.1,0.9
38,'A38',230.0,1,1,1,1,1.0363,50.3024,1.05,0.95,1.1,0.9
39,'A39',230.0,1,1,1,1,1.0555,47.9425,1.06945,0.95,1.1,0.9
40,'A40',230.0,1,1,1,1,1.02256,51.6925,1.05,0.95,1.1,0.9
41,'A41',161.0,1,1,1,1,1.03894,34.5659,1.05,0.95,1.1,0.9
42,'A42',230.0,2,1,1,1,1.0108,24.8564,1.05,0.95,1.1,0.9
43,'A43',230.0,1,1,1,1,1.04112,41.6026,1.05,0.95,1.1,0.9
44,'A44',115.0,1,1,1,1,1.04089,50.1098,1.05,0.95,1.1,0.9
45,'A45',230.0,1,1,1,1,1.04936,32.5639,1.05,0.95,1.1,0.9
46,'A46',1.0,2,1,1,1,1.0132,26.2333,1.05,0.95,1.1,0.9
47,'A47',115.0,1,1,1,1,1.04615,31.359,1.05,0.95,1.1,0.9
48,'A48',230.0,1,1,1,1,1.04672,33.1894,1.05,0.95,1.1,0.9
49,'A49',115.0,1,1,1,1,1.02782,22.7401,1.05,0.95,1.1,0.9
50,'A50',230.0,1,1,1,1,1.03894,34.1782,1.05,0.95,1.1,0.9
51,'A51',1.0,2,1,1,1,1.0218,22.3969,1.05,0.95,1.1,0.9
52,'A52',230.0,1,1,1,1,1.0185,29.2724,1.05,0.95,1.1,0.9
53,'A53',500.0,1,1,1,1,1.05154,47.96,1.06544,0.95,1.1,0.9
54,'A54',230.0,1,1,1,1,1.02512,27.4977,1.05,0.95,1.1,0.9
55,'B55',25.0,2,1,2,1,1.0184,17.7992,1.05,0.95,1.1,0.9
56,'B56',115.0,1,1,2,1,1.02346,17.7951,1.05,0.95,1.1,0.9
57,'B57',12.0,1,1,2,1,1.00978,17.9301,1.05,0.95,1.1,0.9
58,'B58',115.0,1,1,2,1,1.02327,17.7947,1.05,0.95,1.1,0.9
59,'B59',115.0,1,1,2,1,1.01973,17.9406,1.05,0.95,1.1,0.9
60,'B60',25.0,2,1,2,1,1.01938,17.7951,1.05,0.95,1.1,0.9
61,'B61',22.0,1,1,2,1,1.02,17.8819,1.05,0.95,1.1,0.9
62,'B62',115.0,1,1,2,1,1.01986,17.9304,1.05,0.95,1.1,0.9
63,'B63',115.0,1,1,2,1,1.02536,17.7998,1.05,0.95,1.1,0.9
64,'B64',115.0,1,1,2,1,1.01987,17.9301,1.05,0.95,1.1,0.9
65,'B65',25.0,1,1,2,1,1.02327,17.7947,1.05,0.95,1.1,0.9
66,'B66',115.0,1,1,2,1,1.01969,17.8164,1.05,0.95,1.1,0.9
67,'B67',115.0,1,1,2,1,1.02247,17.7992,1.05,0.95,1.1,0.9
68,'B68',12.0,1,1,2,1,1.00978,17.9301,1.05,0.95,1.1,0.9
69,'B69',115.0,1,1,2,1,1.02017,17.8719,1.05,0.95,1.1,0.9
70,'B70',34.5,2,1,2,1,1.02695,17.8507,1.05,0.95,1.1,0.9
71,'C71',1.0,1,1,3,1,1.01156,22.9998,1.05,0.95,1.1,0.9
72,'C72',345.0,1,1,3,1,1.02978,22.6203,1.05,0.95,1.1,0.9
73,'C73',765.0,2,1,3,1,1.0,23.1342,1.05,0.95,1.1,0.9
74,'C74',138.0,1,1,3,1,1.03666,22.4,1.05,0.95,1.1,0.9
75,'C75',345.0,3,1,3,1,1.04,35.2575,1.05,0.95,1.1,0.9
76,'C76',345.0,1,1,3,1,1.03037,27.6596,1.05,0.95,1.1,0.9
77,'C77',138.0,1,1,3,1,1.02736,24.8233,1.05,0.95,1.1,0.9
78,'C78',138.0,2,1,3,1,1.0085,26.1052,1.05,0.95,1.1,0.9
79,'C79',138.0,1,1,3,1,1.02316,16.7098,1.05,0.95,1.1,0.9
80,'C80',18.0,1,1,3,1,1.03672,22.8751,1.05,0.95,1.1,0.9
81,'C81',138.0,1,1,3,1,1.03588,21.8397,1.05,0.95,1.1,0.9
82,'C82',13.8,1,1,3,1,1.04226,26.1932,1.05,0.95,1.1,0.9
83,'C83',345.0,1,1,3,1,1.03672,22.8751,1.05,0.95,1.1,0.9
84,'C84',345.0,1,1,3,1,1.01782,22.6922,1.05,0.95,1.1,0.9
85,'C85',138.0,1,1,3,1,1.03255,22.2298,1.05,0.95,1.1,0.9
86,'C86',138.0,1,1,3,1,1.03101,21.2618,1.05,0.95,1.1,0.9
87,'C87',345.0,1,1,3,1,1.04124,33.4019,1.05,0.95,1.1,0.9
88,'C88',345.0,1,1,3,1,1.03843,28.0469,1.05,0.95,1.1,0.9
89,'C89',345.0,1,1,3,1,1.04266,27.1965,1.05,0.95,1.1,0.9
90,'C90',138.0,1,1,3,1,1.02987,21.8868,1.05,0.95,1.1,0.9
91,'C91',138.0,1,1,3,1,1.03147,21.7711,1.05,0.95,1.1,0.9
92,'C92',138.0,1,1,3,1,1.02099,25.476,1.05,0.95,1.1,0.9
93,'C93',345.0,1,1,3,1,1.02891,22.1873,1.05,0.95,1.1,0.9
94,'C94',138.0,1,1,3,1,1.03294,21.6503,1.05,0.95,1.1,0.9
95,'C95',345.0,1,1,3,1,1.0317,22.7773,1.05,0.95,1.1,0.9
96,'C96',138.0,2,1,3,1,1.0133,26.9379,1.05,0.95,1.1,0.9
97,'C97',138.0,1,1,3,1,1.02523,22.6979,1.05,0.95,1.1,0.9
98,'C98',138.0,1,1,3,1,1.02467,24.9857,1.05,0.95,1.1,0.9
99,'C99',138.0,1,1,3,1,1.01515,26.3317,1.05,0.95,1.1,0.9
100,'C100',1.0,1,1,3,1,1.01168,23.0037,1.05,0.95,1.1,0.9
101,'C101',345.0,1,1,3,1,1.03903,26.2089,1.05,0.95,1.1,0.9
102,'C102',138.0,1,1,3,1,1.03279,13.9025,1.05,0.95,1.1,0.9
103,'C103',138.0,1,1,3,1,1.03708,22.2227,1.05,0.95,1.1,0.9
104,'C104',345.0,1,1,3,1,1.03853,22.98,1.05,0.95,1.1,0.9
105,'C105',345.0,1,1,3,1,1.04226,26.1932,1.05,0.95,1.1,0.9
106,'C106',13.8,1,1,3,1,1.04226,26.1932,1.05,0.95,1.1,0.9
107,'C107',138.0,1,1,3,1,1.01921,26.4292,1.05,0.95,1.1,0.9
108,'C108',345.0,1,1,3,1,1.03401,22.7663,1.05,0.95,1.1,0.9
109,'C109',345.0,1,1,3,1,1.01466,22.6395,1.05,0.95,1.1,0.9
110,'C110',138.0,1,1,3,1,1.02088,25.504,1.05,0.95,1.1,0.9
111,'C111',138.0,1,1,3,1,1.02445,16.3002,1.05,0.95,1.1,0.9
112,'C112',138.0,2,1,3,1,1.01128,22.3651,1.05,0.95,1.1,0.9
113,'C113',345.0,1,1,3,1,1.02512,21.456,1.05,0.95,1.1,0.9
114,'C114',138.0,1,1,3,1,1.03294,22.9626,1.05,0.95,1.1,0.9
115,'C115',138.0,1,1,3,1,1.03058,21.3756,1.05,0.95,1.1,0.9
116,'C116',138.0,2,1,3,1,1.0311,12.6787,1.05,0.95,1.1,0.9
117,'C117',13.8,1,1,3,1,1.02613,21.5654,1.05,0.95,1.1,0.9
118,'C118',345.0,1,1,3,1,1.01303,22.8661,1.05,0.95,1.1,0.9
119,'C119',24.0,2,1,3,1,1.04502,24.4439,1.05,0.95,1.1,0.9
120,'C120',138.0,1,1,3,1,1.01617,20.5025,1.05,0.95,1.1,0.9
121,'C121',345.0,1,1,3,1,1.01302,22.8657,1.05,0.95,1.1,0.9
122,'C122',138.0,1,1,3,1,1.02788,24.8086,1.05,0.95,1.1,0.9
123,'C123',138.0,1,1,3,1,1.02725,23.5969,1.05,0.95,1.1,0.9
124,'C124',138.0,1,1,3,1,1.02317,16.7195,1.05,0.95,1.1,0.9
125,'C125',18.0,1,1,3,1,1.03672,22.8751,1.05,0.95,1.1,0.9
126,'C126',18.0,1,1,3,1,1.03672,22.8751,1.05,0.95,1.1,0.9
127,'C127',345.0,1,1,3,1,1.03044,22.416,1.05,0.95,1.1,0.9
128,'C128',138.0,1,1,3,1,1.02062,26.4668,1.05,0.95,1.1,0.9
129,'C129',24.0,2,1,3,1,1.0239,24.4642,1.05,0.95,1.1,0.9
130,'C130',138.0,1,1,3,1,1.03131,21.9508,1.05,0.95,1.1,0.9
131,'C131',138.0,1,1,3,1,1.02047,23.4602,1.05,0.95,1.1,0.9
132,'C132',138.0,1,1,3,1,1.03072,21.7115,1.05,0.95,1.1,0.9
133,'C133',138.0,1,1,3,1,1.02781,24.0205,1.05,0.95,1.1,0.9
134,'C134',138.0,1,1,3,1,1.01898,26.0111,1.05,0.95,1.1,0.9
135,'C135',345.0,1,1,3,1,1.03481,24.4399,1.05,0.95,1.1,0.9
136,'C136',138.0,1,1,3,1,1.02513,25.1736,1.05,0.95,1.1,0.9
137,'C137',345.0,1,1,3,1,1.03026,23.1567,1.05,0.95,1.1,0.9
138,'C138',138.0,1,1,3,1,1.02831,16.7106,1.05,0.95,1.1,0.9
139,'C139',138.0,1,1,3,1,1.03195,21.6211,1.05,0.95,1.1,0.9
140,'C140',13.8,1,1,3,1,1.02612,21.5653,1.05,0.95,1.1,0.9
141,'C141',345.0,2,1,3,1,1.0393,23.1392,1.05,0.95,1.1,0.9
142,'C142',345.0,1,1,3,1,1.01316,22.8524,1.05,0.95,1.1,0.9
143,'C143',345.0,1,1,3,1,1.03631,29.2977,1.05,0.95,1.1,0.9
144,'C144',138.0,1,1,3,1,1.0208,25.4717,1.05,0.95,1.1,0.9
145,'C145',138.0,1,1,3,1,1.02822,22.6617,1.05,0.95,1.1,0.9
146,'C146',138.0,1,1,3,1,1.03454,23.7824,1.05,0.95,1.1,0.9
147,'C147',138.0,2,1,3,1,1.03159,21.258,1.05,0.95,1.1,0.9
148,'C148',138.0,1,1,3,1,1.0306,21.2232,1.05,0.95,1.1,0.9
149,'C149',138.0,1,1,3,1,1.02329,24.6198,1.05,0.95,1.1,0.9
150,'C150',138.0,1,1,3,1,1.03059,22.2044,1.05,0.95,1.1,0.9
151,'D151',230.0,2,1,4,1,1.01478,18.8417,1.05,0.95,1.1,0.9
152,'D152',25.0,2,1,4,1,1.01623,17.9659,1.05,0.95,1.1,0.9
153,'D153',115.0,1,1,4,1,1.02237,18.3051,1.05,0.95,1.1,0.9
154,'D154',46.0,2,1,4,1,1.01,18.5376,1.05,0.95,1.1,0.9
155,'D155',115.0,1,1,4,1,1.02198,16.1907,1.05,0.95,1.1,0.9
156,'D156',115.0,1,1,4,1,1.02306,18.0329,1.05,0.95,1.1,0.9
157,'D157',46.0,1,1,4,1,1.02323,17.9798,1.05,0.95,1.1,0.9
158,'D158',115.0,1,1,4,1,1.02185,17.9168,1.05,0.95,1.1,0.9
159,'D159',46.0,1,1,4,1,1.00898,17.0265,1.05,0.95,1.1,0.9
160,'D160',230.0,2,1,4,1,1.011,21.6128,1.05,0.95,1.1,0.9
161,'D161',46.0,1,1,4,1,1.01161,16.9376,1.05,0.95,1.1,0.9
162,'D162',115.0,1,1,4,1,1.02361,19.3727,1.05,0.95,1.1,0.9
163,'D163',13.8,2,1,4,1,1.02244,17.9053,1.05,0.95,1.1,0.9
164,'D164',115.0,1,1,4,1,1.02271,18.6189,1.05,0.95,1.1,0.9
165,'D165',115.0,1,1,4,1,1.02376,18.4977,1.05,0.95,1.1,0.9
166,'D166',115.0,1,1,4,1,1.0251,19.3357,1.05,0.95,1.1,0.9
167,'D167',230.0,1,1,4,1,1.01303,19.9185,1.05,0.95,1.1,0.9
168,'D168',115.0,1,1,4,1,1.02129,17.7055,1.05,0.95,1.1,0.9
169,'D169',115.0,1,1,4,1,1.02356,19.1082,1.05,0.95,1.1,0.9
170,'D170',115.0,1,1,4,1,1.02198,18.1451,1.05,0.95,1.1,0.9
171,'D171',230.0,1,1,4,1,1.0185,20.1532,1.05,0.95,1.1,0.9
172,'D172',115.0,1,1,4,1,1.02174,14.9972,1.05,0.95,1.1,0.9
173,'D173',46.0,1,1,4,1,1.01298,17.3882,1.05,0.95,1.1,0.9
174,'D174',115.0,1,1,4,1,1.02605,19.5734,1.05,0.95,1.1,0.9
175,'D175',115.0,1,1,4,1,1.03482,17.7459,1.05,0.95,1.1,0.9
176,'D176',115.0,1,1,4,1,1.02277,18.6381,1.05,0.95,1.1,0.9
177,'D177',230.0,1,1,4,1,1.01395,18.567,1.05,0.95,1.1,0.9
178,'D178',34.5,2,1,4,1,1.02091,17.5428,1.05,0.95,1.1,0.9
179,'D179',13.8,2,1,4,1,1.02306,18.0329,1.05,0.95,1.1,0.9
180,'D180',115.0,1,1,4,1,1.02487,14.0674,1.05,0.95,1.1,0.9
181,'D181',46.0,1,1,4,1,1.03364,17.5328,1.05,0.95,1.1,0.9
182,'D182',34.5,2,1,4,1,1.02185,17.9168,1.05,0.95,1.1,0.9
183,'D183',115.0,1,1,4,1,1.0236,19.0921,1.05,0.95,1.1,0.9
184,'D184',46.0,1,1,4,1,1.01672,16.4204,1.05,0.95,1.1,0.9
185,'D185',115.0,1,1,4,1,1.02276,19.3391,1.05,0.95,1.1,0.9
186,'D186',230.0,1,1,4,1,1.01471,19.5345,1.05,0.95,1.1,0.9
187,'D187',115.0,1,1,4,1,1.02073,16.6531,1.05,0.95,1.1,0.9
188,'D188',115.0,1,1,4,1,1.02339,19.1266,1.05,0.95,1.1,0.9
189,'D189',230.0,1,1,4,1,1.01327,20.412,1.05,0.95,1.1,0.9
190,'D190',46.0,1,1,4,1,1.02013,17.0636,1.05,0.95,1.1,0.9
191,'D191',22.0,1,1,4,1,1.01988,17.8149,1.05,0.95,1.1,0.9
192,'D192',34.5,2,1,4,1,1.02415,16.256,1.05,0.95,1.1,0.9
193,'D193',115.0,1,1,4,1,1.03497,17.1712,1.05,0.95,1.1,0.9
194,'D194',46.0,1,1,4,1,1.01474,17.9361,1.05,0.95,1.1,0.9
195,'D195',46.0,1,1,4,1,1.01984,16.8877,1.05,0.95,1.1,0.9
196,'D196',34.5,2,1,4,1,1.02185,17.9168,1.05,0.95,1.1,0.9
197,'D197',46.0,1,1,4,1,1.01485,16.9813,1.05,0.95,1.1,0.9
198,'D198',115.0,1,1,4,1,1.02224,18.4249,1.05,0.95,1.1,0.9
199,'D199',34.5,2,1,4,1,1.01471,19.5345,1.05,0.95,1.1,0.9
200,'D200',46.0,1,1,4,1,1.01983,14.4134,1.05,0.95,1.1,0.9
...
0 / END OF BUS DATA BEGIN LOAD DATA
4,'1',1,1,1,-29.806,7.115,0.0,0.0,0.0,0.0,1,1,0
5,'1',1,1,1,38.403,-9.119,0.0,0.0,0.0,0.0,1,1,0
7,'1',1,1,1,-49.931,-0.258,0.0,0.0,0.0,0.0,1,1,0
9,'1',1,1,1,34.26,-14.453,0.0,0.0,0.0,0.0,1,1,0
11,'1',1,1,1,14.375,1.881,0.0,0.0,0.0,0.0,1,1,0
12,'99',0,1,1,22.891,2.788,0.0,0.0,0.0,0.0,1,1,0
14,'99',0,1,1,259.475,-10.863,0.0,0.0,0.0,0.0,1,1,0
15,'1',1,1,1,-29.812,7.115,0.0,0.0,0.0,0.0,1,1,0
16,'1',1,1,1,18.829,5.372,0.0,0.0,0.0,0.0,1,1,0
16,'2',1,1,1,21.156,0.242,0.0,0.0,0.0,0.0,1,1,0
16,'99',0,1,1,6.157,-17.663,0.0,0.0,0.0,0.0,1,1,0
17,'1',1,1,1,9.068,2.463,0.0,0.0,0.0,0.0,1,1,0
18,'1',1,1,1,12.947,0.972,0.0,0.0,0.0,0.0,1,1,0
21,'1',1,1,1,-30.045,9.304,0.0,0.0,0.0,0.0,1,1,0
25,'1',1,1,1,-33.807,7.452,0.0,0.0,0.0,0.0,1,1,0
26,'1',1,1,1,34.178,-6.973,0.0,0.0,0.0,0.0,1,1,0
27,'1',1,1,1,47.575,-13.135,0.0,0.0,0.0,0.0,1,1,0
28,'1',1,1,1,-68.155,-2.255,0.0,0.0,0.0,0.0,1,1,0
30,'1',1,1,1,27.667,8.376,0.0,0.0,0.0,0.0,1,1,0
32,'1',1,1,1,21.345,5.527,0.0,0.0,0.0,0.0,1,1,0
32,'99',0,1,1,19.614,-35.517,0.0,0.0,0.0,0.0,1,1,0
33,'1',1,1,1,-15.454,8.927,0.0,0.0,0.0,0.0,1,1,0
34,'1',1,1,1,32.948,26.315,0.0,0.0,0.0,0.0,1,1,0
35,'1',1,1,1,9.704,1.736,0.0,0.0,0.0,0.0,1,1,0
42,'1',1,1,1,11.478,1.912,0.0,0.0,0.0,0.0,1,1,0
44,'1',1,1,1,-49.927,-0.434,0.0,0.0,0.0,0.0,1,1,0
47,'1',1,1,1,48.119,-11.324,0.0,0.0,0.0,0.0,1,1,0
49,'1',1,1,1,10.606,1.34,0.0,0.0,0.0,0.0,1,1,0
50,'1',1,1,1,7.549,-1.714,0.0,0.0,0.0,0.0,1,1,0
52,'1',1,1,1,7.335,0.859,0.0,0.0,0.0,0.0,1,1,0
54,'1',1,1,1,25.264,1.066,0.0,0.0,0.0,0.0,1,1,0
54,'2',1,1,1,39.343,2.985,0.0,0.0,0.0,0.0,1,1,0
59,'99',1,1,2,3.586,-3.055,0.0,0.0,0.0,0.0,1,1,0
61,'1',1,1,2,-0.164,0.186,0.0,0.0,0.0,0.0,1,1,0
63,'1',1,1,2,3.196,-0.176,0.0,0.0,0.0,0.0,1,1,0
66,'1',1,1,2,1.277,-1.988,0.0,0.0,0.0,0.0,1,1,0
74,'1',1,1,3,22.304,10.204,0.0,0.0,0.0,0.0,1,1,0
75,'99',1,1,3,9.352,-4.854,0.0,0.0,0.0,0.0,1,1,0
77,'1',1,1,3,1.714,0.475,0.0,0.0,0.0,0.0,1,1,0
78,'1',1,1,3,3.523,-0.204,0.0,0.0,0.0,0.0,1,1,0
79,'1',1,1,3,17.643,-0.466,0.0,0.0,0.0,0.0,1,1,0
81,'1',1,1,3,6.725,1.516,0.0,0.0,0.0,0.0,1,1,0
83,'1',1,1,3,-2.048,2.051,0.0,0.0,0.0,0.0,1,1,0
85,'1',1,1,3,3.988,0.267,0.0,0.0,0.0,0.0,1,1,0
85,'2',1,1,3,5.401,0.582,0.0,0.0,0.0,0.0,1,1,0
86,'1',1,1,3,14.865,1.793,0.0,0.0,0.0,0.0,1,1,0
87,'99',1,1,3,149.621,2.412,0.0,0.0,0.0,0.0,1,1,0
88,'99',1,1,3,16.689,4.345,0.0,0.0,0.0,0.0,1,1,0
89,'99',1,1,3,59.689,0.691,0.0,0.0,0.0,0.0,1,1,0
90,'1',1,1,3,10.918,3.004,0.0,0.0,0.0,0.0,1,1,0
91,'1',1,1,3,3.171,0.755,0.0,0.0,0.0,0.0,1,1,0
92,'1',1,1,3,5.725,2.573,0.0,0.0,0.0,0.0,1,1,0
92,'2',1,1,3,5.725,2.573,0.0,0.0,0.0,0.0,1,1,0
92,'99',1,1,3,0.865,-6.634,0.0,0.0,0.0,0.0,1,1,0
93,'99',1,1,3,43.08,-7.312,0.0,0.0,0.0,0.0,1,1,0
94,'1',1,1,3,6.486,1.315,0.0,0.0,0.0,0.0,1,1,0
96,'1',1,1,3,5.07,1.076,0.0,0.0,0.0,0.0,1,1,0
97,'99',1,1,3,48.233,-9.777,0.0,0.0,0.0,0.0,1,1,0
98,'1',1,1,3,8.842,3.278,0.0,0.0,0.0,0.0,1,1,0
99,'1',1,1,3,12.698,4.378,0.0,0.0,0.0,0.0,1,1,0
99,'99',0,1,3,6.589,-2.898,0.0,0.0,0.0,0.0,1,1,0
103,'1',1,1,3,9.958,-8.354,0.0,0.0,0.0,0.0,1,1,0
107,'1',1,1,3,1.419,0.758,0.0,0.0,0.0,0.0,1,1,0
109,'99',1,1,3,27.786,-2.882,0.0,0.0,0.0,0.0,1,1,0
112,'1',1,1,3,7.395,9.411,0.0,0.0,0.0,0.0,1,1,0
113,'99',1,1,3,214.661,-32.694,0.0,0.0,0.0,0.0,1,1,0
114,'99',1,1,3,24.001,-5.761,0.0,0.0,0.0,0.0,1,1,0
115,'1',1,1,3,10.304,4.448,0.0,0.0,0.0,0.0,1,1,0
116,'1',1,1,3,9.071,0.503,0.0,0.0,0.0,0.0,1,1,0
117,'1',1,1,3,4.935,-1.019,0.0,0.0,0.0,0.0,1,1,0
119,'1',1,1,3,-0.541,1.947,0.0,0.0,0.0,0.0,1,1,0
122,'1',1,1,3,0.947,-3.227,0.0,0.0,0.0,0.0,1,1,0
123,'1',1,1,3,11.239,0.585,0.0,0.0,0.0,0.0,1,1,0
128,'1',1,1,3,11.453,1.884,0.0,0.0,0.0,0.0,1,1,0
128,'2',1,1,3,-0.714,1.183,0.0,0.0,0.0,0.0,1,1,0
129,'1',1,1,3,-0.544,1.906,0.0,0.0,0.0,0.0,1,1,0
130,'1',1,1,3,-14.604,1.488,0.0,0.0,0.0,0.0,1,1,0
131,'1',1,1,3,1.224,0.377,0.0,0.0,0.0,0.0,1,1,0
132,'1',1,1,3,38.506,4.923,0.0,0.0,0.0,0.0,1,1,0
133,'1',1,1,3,14.01,5.851,0.0,0.0,0.0,0.0,1,1,0
134,'1',1,1,3,7.395,4.407,0.0,0.0,0.0,0.0,1,1,0
136,'99',1,1,3,0.982,-3.64,0.0,0.0,0.0,0.0,1,1,0
138,'1',1,1,3,9.902,1.151,0.0,0.0,0.0,0.0,1,1,0
139,'1',1,1,3,-1.595,0.038,0.0,0.0,0.0,0.0,1,1,0
140,'1',1,1,3,4.938,-1.019,0.0,0.0,0.0,0.0,1,1,0
144,'1',1,1,3,3.963,0.248,0.0,0.0,0.0,0.0,1,1,0
145,'1',1,1,3,10.987,3.293,0.0,0.0,0.0,0.0,1,1,0
146,'1',1,1,3,0.525,1.261,0.0,0.0,0.0,0.0,1,1,0
146,'2',1,1,3,1.356,1.906,0.0,0.0,0.0,0.0,1,1,0
147,'1',1,1,3,5.797,1.349,0.0,0.0,0.0,0.0,1,1,0
148,'1',1,1,3,9.528,4.813,0.0,0.0,0.0,0.0,1,1,0
149,'1',1,1,3,5.866,3.696,0.0,0.0,0.0,0.0,1,1,0
149,'2',1,1,3,6.096,2.906,0.0,0.0,0.0,0.0,1,1,0
150,'1',1,1,3,0.327,0.997,0.0,0.0,0.0,0.0,1,1,0
153,'1',1,1,4,5.001,1.991,0.0,0.0,0.0,0.0,1,1,0
153,'2',1,1,4,4.617,-0.311,0.0,0.0,0.0,0.0,1,1,0
154,'1',1,1,4,12.248,-0.242,0.0,0.0,0.0,0.0,1,1,0
156,'1',1,1,4,3.057,0.444,0.0,0.0,0.0,0.0,1,1,0
159,'1',1,1,4,2.419,0.544,0.0,0.0,0.0,0.0,1,1,0
160,'99',0,1,4,131.274,-62.291,0.0,0.0,0.0,0.0,1,1,0
161,'1',1,1,4,5.615,2.06,0.0,0.0,0.0,0.0,1,1,0
162,'1',1,1,4,1.441,0.346,0.0,0.0,0.0,0.0,1,1,0
162,'2',1,1,4,2.762,0.494,0.0,0.0,0.0,0.0,1,1,0
162,'3',1,1,4,2.828,0.777,0.0,0.0,0.0,0.0,1,1,0
163,'1',1,1,4,2.0,0.362,0.0,0.0,0.0,0.0,1,1,0
164,'1',1,1,4,2.686,-0.406,0.0,0.0,0.0,0.0,1,1,0
165,'1',1,1,4,4.196,0.154,0.0,0.0,0.0,0.0,1,1,0
165,'2',1,1,4,6.36,0.708,0.0,0.0,0.0,0.0,1,1,0
166,'1',1,1,4,2.428,-0.192,0.0,0.0,0.0,0.0,1,1,0
166,'2',1,1,4,2.111,0.255,0.0,0.0,0.0,0.0,1,1,0
168,'1',1,1,4,0.752,0.299,0.0,0.0,0.0,0.0,1,1,0
168,'2',1,1,4,1.472,-0.827,0.0,0.0,0.0,0.0,1,1,0
170,'1',1,1,4,3.029,0.299,0.0,0.0,0.0,0.0,1,1,0
173,'1',1,1,4,7.36,0.255,0.0,0.0,0.0,0.0,1,1,0
174,'1',1,1,4,-0.129,-0.434,0.0,0.0,0.0,0.0,1,1,0
176,'1',1,1,4,4.073,-1.368,0.0,0.0,0.0,0.0,1,1,0
176,'2',1,1,4,3.91,-0.431,0.0,0.0,0.0,0.0,1,1,0
177,'99',1,1,4,48.75,-10.181,0.0,0.0,0.0,0.0,1,1,0
180,'1',1,1,4,4.092,-0.396,0.0,0.0,0.0,0.0,1,1,0
180,'2',1,1,4,4.303,0.585,0.0,0.0,0.0,0.0,1,1,0
180,'99',1,1,4,7.925,-7.548,0.0,0.0,0.0,0.0,1,1,0
181,'1',1,1,4,2.743,-0.22,0.0,0.0,0.0,0.0,1,1,0
183,'1',1,1,4,1.906,-0.488,0.0,0.0,0.0,0.0,1,1,0
184,'1',1,1,4,3.708,0.733,0.0,0.0,0.0,0.0,1,1,0
187,'1',1,1,4,2.041,-0.484,0.0,0.0,0.0,0.0,1,1,0
188,'1',1,1,4,0.966,-0.711,0.0,0.0,0.0,0.0,1,1,0
188,'2',1,1,4,0.827,-0.701,0.0,0.0,0.0,0.0,1,1,0
190,'1',1,1,4,2.626,0.148,0.0,0.0,0.0,0.0,1,1,0
191,'1',1,1,4,-0.164,0.186,0.0,0.0,0.0,0.0,1,1,0
193,'1',1,1,4,0.047,0.305,0.0,0.0,0.0,0.0,1,1,0
193,'99',1,1,4,29.806,-4.937,0.0,0.0,0.0,0.0,1,1,0
195,'1',1,1,4,2.711,-0.796,0.0,0.0,0.0,0.0,1,1,0
200,'1',1,1,4,3.718,-0.198,0.0,0.0,0.0,0.0,1,1,0
201,'1',1,1,4,2.265,0.777,0.0,0.0,0.0,0.0,1,1,0
203,'1',1,1,4,-0.296,-4.728,0.0,0.0,0.0,0.0,1,1,0
203,'2',1,1,4,1.227,-3.708,0.0,0.0,0.0,0.0,1,1,0
204,'99',0,1,4,67.773,-34.499,0.0,0.0,0.0,0.0,1,1,0
206,'1',1,1,4,-0.576,-0.129,0.0,0.0,0.0,0.0,1,1,0
207,'1',1,1,4,-0.104,1.541,0.0,0.0,0.0,0.0,1,1,0
208,'1',1,1,4,4.621,0.025,0.0,0.0,0.0,0.0,1,1,0
214,'1',1,1,4,4.36,-0.11,0.0,0.0,0.0,0.0,1,1,0
214,'2',1,1,4,4.36,-0.11,0.0,0.0,0.0,0.0,1,1,0
215,'1',1,1,4,1.4,0.859,0.0,0.0,0.0,0.0,1,1,0
216,'1',1,1,4,4.68,0.78,0.0,0.0,0.0,0.0,1,1,0
216,'2',1,1,4,4.212,0.245,0.0,0.0,0.0,0.0,1,1,0
217,'1',1,1,4,7.603,4.366,0.0,0.0,0.0,0.0,1,1,0
218,'1',1,1,4,6.272,0.365,0.0,0.0,0.0,0.0,1,1,0
219,'1',1,1,4,2.944,1.73,0.0,0.0,0.0,0.0,1,1,0
220,'1',1,1,4,1.868,0.377,0.0,0.0,0.0,0.0,1,1,0
221,'1',1,1,4,5.354,1.007,0.0,0.0,0.0,0.0,1,1,0
221,'2',1,1,4,6.206,0.576,0.0,0.0,0.0,0.0,1,1,0
222,'1',1,1,4,1.277,-1.988,0.0,0.0,0.0,0.0,1,1,0
223,'1',1,1,4,2.155,0.066,0.0,0.0,0.0,0.0,1,1,0
226,'99',1,1,4,18.774,-3.586,0.0,0.0,0.0,0.0,1,1,0
227,'1',1,1,4,-0.594,0.142,0.0,0.0,0.0,0.0,1,1,0
228,'1',1,1,4,5.124,1.799,0.0,0.0,0.0,0.0,1,1,0
229,'1',1,1,4,3.133,0.182,0.0,0.0,0.0,0.0,1,1,0
229,'2',1,1,4,4.668,0.623,0.0,0.0,0.0,0.0,1,1,0
231,'1',1,1,4,0.956,-0.767,0.0,0.0,0.0,0.0,1,1,0
233,'1',1,1,4,3.702,-0.06,0.0,0.0,0.0,0.0,1,1,0
235,'1',1,1,4,2.004,-0.179,0.0,0.0,0.0,0.0,1,1,0
236,'1',1,1,4,3.057,-0.261,0.0,0.0,0.0,0.0,1,1,0
239,'1',1,1,4,0.532,2.595,0.0,0.0,0.0,0.0,1,1,0
241,'99',1,1,4,6.873,-3.249,0.0,0.0,0.0,0.0,1,1,0
244,'1',1,1,4,6.848,0.063,0.0,0.0,0.0,0.0,1,1,0
246,'1',1,1,4,2.821,0.79,0.0,0.0,0.0,0.0,1,1,0
248,'1',1,1,4,3.397,0.802,0.0,0.0,0.0,0.0,1,1,0
249,'1',1,1,4,3.535,0.425,0.0,0.0,0.0,0.0,1,1,0
253,'1',1,1,5,11.956,2.249,0.0,0.0,0.0,0.0,1,1,0
254,'1',1,1,5,5.542,-0.51,0.0,0.0,0.0,0.0,1,1,0
256,'1',1,1,5,7.43,0.333,0.0,0.0,0.0,0.0,1,1,0
256,'2',1,1,5,7.43,0.333,0.0,0.0,0.0,0.0,1,1,0
259,'1',1,1,5,4.268,0.195,0.0,0.0,0.0,0.0,1,1,0
264,'1',1,1,5,3.756,-0.425,0.0,0.0,0.0,0.0,1,1,0
264,'2',1,1,5,3.756,-0.425,0.0,0.0,0.0,0.0,1,1,0
264,'3',1,1,5,3.756,-0.425,0.0,0.0,0.0,0.0,1,1,0
267,'1',1,1,5,6.303,0.11,0.0,0.0,0.0,0.0,1,1,0
267,'2',1,1,5,6.143,0.94,0.0,0.0,0.0,0.0,1,1,0
269,'1',1,1,5,20.798,3.145,0.0,0.0,0.0,0.0,1,1,0
273,'1',1,1,5,8.791,2.755,0.0,0.0,0.0,0.0,1,1,0
283,'1',1,1,5,5.482,0.434,0.0,0.0,0.0,0.0,1,1,0
284,'1',1,1,5,5.847,0.23,0.0,0.0,0.0,0.0,1,1,0
284,'2',1,1,5,5.847,0.23,0.0,0.0,0.0,0.0,1,1,0
284,'3',1,1,5,5.847,0.23,0.0,0.0,0.0,0.0,1,1,0
284,'4',1,1,5,5.847,0.23,0.0,0.0,0.0,0.0,1,1,0
287,'1',1,1,5,5.583,3.834,0.0,0.0,0.0,0.0,1,1,0
287,'2',1,1,5,5.583,3.834,0.0,0.0,0.0,0.0,1,1,0
291,'1',1,1,5,4.602,0.72,0.0,0.0,0.0,0.0,1,1,0
292,'99',1,1,5,102.619,24.582,0.0,0.0,0.0,0.0,1,1,0
294,'1',1,1,5,7.461,0.267,0.0,0.0,0.0,0.0,1,1,0
294,'2',1,1,5,7.461,0.267,0.0,0.0,0.0,0.0,1,1,0
296,'1',1,1,5,10.421,5.693,0.0,0.0,0.0,0.0,1,1,0
298,'1',1,1,5,13.981,3.881,0.0,0.0,0.0,0.0,1,1,0
298,'2',1,1,5,13.981,3.881,0.0,0.0,0.0,0.0,1,1,0
303,'1',1,1,5,6.794,0.315,0.0,0.0,0.0,0.0,1,1,0
309,'1',1,1,5,0.648,-2.784,0.0,0.0,0.0,0.0,1,1,0
312,'1',1,1,5,2.548,0.843,0.0,0.0,0.0,0.0,1,1,0
313,'1',1,1,5,2.564,4.209,0.0,0.0,0.0,0.0,1,1,0
313,'2',1,1,5,16.168,8.788,0.0,0.0,0.0,0.0,1,1,0
316,'1',1,1,5,6.517,-0.723,0.0,0.0,0.0,0.0,1,1,0
...
0 / END OF LOAD DATA BEGIN FIXED SHUNT DATA
12,'99',1,0.0,2.664
16,'99',1,0.0,-17.445
23,'99',1,0.0,10.787
32,'99',1,0.0,-34.159
66,'99',1,0.0,-15.861
99,'99',1,0.0,-2.847
110,'99',1,0.0,7.776
116,'99',1,0.0,51.25
131,'99',1,0.0,7.254
160,'99',1,0.0,-59.884
204,'99',1,0.0,-32.353
223,'99',1,0.0,12.54
225,'99',1,0.0,3.413
294,'99',1,0.0,-4.561
300,'99',1,0.0,-22.762
315,'99',1,0.0,20.519
319,'99',1,0.0,-24.136
331,'99',1,0.0,-40.033
373,'99',1,0.0,-42.075
380,'99',1,0.0,-7.745
413,'99',1,0.0,26.063
415,'99',1,0.0,18.111
417,'99',1,0.0,12.322
463,'99',1,0.0,5.565
469,'99',1,0.0,8.481
477,'99',1,0.0,4.788
490,'99',1,0.0,40.614
493,'99',1,0.0,-15.605
505,'99',1,0.0,11.031
511,'99',1,0.0,7.141
526,'99',1,0.0,58.406
536,'99',1,0.0,10.172
559,'99',1,0.0,-7.526
660,'99',1,0.0,131.363
666,'99',1,0.0,-1.426
678,'99',1,0.0,46.173
910,'99',1,0.0,-17.163
949,'99',1,0.0,-57.137
975,'99',1,0.0,-22.802
1026,'99',1,0.0,52.62
1065,'99',1,0.0,-17.869
1186,'99',1,0.0,-13.527
1206,'99',1,0.0,-21.227
1212,'99',1,0.0,7.441
1214,'99',1,0.0,-10.675
1261,'99',1,0.0,-26.327
1268,'99',1,0.0,-13.078
1326,'99',1,0.0,0.447
1366,'99',1,0.0,30.53
1367,'99',1,0.0,-85.711
1389,'99',1,0.0,21.371
1405,'99',1,0.0,-5.636
1469,'99',1,0.0,4.576
1472,'99',1,0.0,68.875
1490,'99',1,0.0,-11.341
1523,'99',1,0.0,-0.597
1596,'99',1,0.0,-2.77
1608,'99',1,0.0,107.695
1666,'99',1,0.0,35.076
1713,'99',1,0.0,44.457
1715,'99',1,0.0,28.052
1754,'99',1,0.0,9.137
1769,'99',1,0.0,137.513
1772,'99',1,0.0,18.26
1871,'99',1,0.0,109.182
1874,'99',1,0.0,17.981
1881,'99',1,0.0,-1.066
1899,'99',1,0.0,-55.276
1966,'99',1,0.0,10.11
1983,'99',1,0.0,89.017
1991,'99',1,0.0,-6.216
1992,'99',1,0.0,-63.017
1994,'99',1,0.0,125.504
2163,'99',1,0.0,-24.38
2185,'99',1,0.0,41.553
2192,'99',1,0.0,-22.419
2199,'99',1,0.0,-43.771
2208,'99',1,0.0,5.411
2230,'99',1,0.0,1.625
2242,'99',1,0.0,45.209
2252,'99',1,0.0,20.955
2303,'99',1,0.0,-1.985
2324,'99',1,0.0,-12.701
2375,'99',1,0.0,-0.797
2386,'99',1,0.0,2.301
2389,'99',1,0.0,18.865
2397,'99',1,0.0,-4.732
2429,'99',1,0.0,1.7
2436,'99',1,0.0,-2.858
2437,'99',1,0.0,-2.864
2439,'99',1,0.0,-3.769
2440,'99',1,0.0,-3.77
2443,'99',1,0.0,-21.078
2444,'99',1,0.0,-21.078
2445,'99',1,0.0,-39.396
2448,'99',1,0.0,25.649
2451,'99',1,0.0,-1.928
2452,'99',1,0.0,-1.942
2505,'99',1,0.0,1.655
2537,'99',1,0.0,5.439
2557,'99',1,0.0,-2.408
2568,'99',1,0.0,31.065
2585,'99',1,0.0,35.6
2612,'99',1,0.0,23.459
2633,'99',1,0.0,-0.849
2634,'99',1,0.0,4.733
2645,'99',1,0.0,-13.322
2664,'99',1,0.0,-0.759
2671,'99',1,0.0,0.624
2689,'99',1,0.0,3.275
2792,'99',1,0.0,12.308
2800,'99',1,0.0,-45.119
2813,'99',1,0.0,42.927
2814,'99',1,0.0,74.913
2826,'99',1,0.0,-128.245
2829,'99',1,0.0,-106.655
2836,'99',1,0.0,0.709
2840,'99',1,0.0,53.016
2841,'99',1,0.0,-1.039
2843,'99',1,0.0,10.356
2873,'99',1,0.0,0.713
2874,'99',1,0.0,-7.759
2921,'99',1,0.0,4.396
2922,'99',1,0.0,-46.019
2935,'99',1,0.0,-1.674
2955,'99',1,0.0,-1.64
2966,'99',1,0.0,5.996
2991,'99',1,0.0,-14.913
2995,'99',1,0.0,3.541
0 / END OF FIXED SHUNT DATA BEGIN GENERATOR DATA
9,'94',3.1,-109.266,500.0,-500.0,1.0,0,100.0,0.0,1.0,0.0,0.0,1.0,1,100.0,40.0,3.0,1,1.0,0,1.0,0,1.0,0,1.0,0,1.0
21,'1',0.0,0.0,532.035,-532.035,1.0,0,100.0,0.0,1.0,0.0,0.0,1.0,0,100.0,1764.706,88.235,1,1.0,0,1.0,0,1.0,0,1.0,0,1.0
23,'99',288.798,-33.333,33.333,-33.333,1.01092,0,100.0,0.0,1.0,0.0,0.0,1.0,1,100.0,357.409,17.87,1,1.0,0,1.0,0,1.0,0,1.0,0,1.0
25,'1',382.2,-113.882,400.0,-400.0,1.0,0,100.0,0.0,1.0,0.0,0.0,1.0,1,100.0,2076.125,103.806,1,1.0,0,1.0,0,1.0,0,1.0,0,1.0
27,'99',31.619,28.922,550.0,-550.0,1.0361,0,100.0,0.0,1.0,0.0,0.0,1.0,1,100.0,1500.0,28.457,1,1.0,0,1.0,0,1.0,0,1.0,0,1.0
42,'99',11.961,41.343,550.0,-550.0,1.0108,0,100.0,0.0,1.0,0.0,0.0,1.0,1,100.0,1500.0,11.961,1,1.0,0,1.0,0,1.0,0,1.0,0,1.0
46,'99',57.61,-64.802,550.0,-550.0,1.0132,0,100.0,0.0,1.0,0.0,0.0,1.0,1,100.0,1500.0,51.849,1,1.0,0,1.0,0,1.0,0,1.0,0,1.0
51,'99',9.16,28.056,550.0,-550.0,1.0218,0,100.0,0.0,1.0,0.0,0.0,1.0,1,100.0,1500.0,8.244,1,1.0,0,1.0,0,1.0,0,1.0,0,1.0
55,'1',0.0,0.0,131.303,-131.303,1.04,0,35.0,0.0,0.8,0.0,0.0,1.0,0,100.0,422.059,5.7,1,1.0,0,1.0,0,1.0,0,1.0,0,1.0
60,'1',3.1,0.0,9.352,-9.352,1.04,0,100.0,0.0,1.0,0.0,0.0,1.0,0,100.0,41.606,3.0,1,1.0,0,1.0,0,1.0,0,1.0,0,1.0
70,'1',5.32,9.296,9.296,-9.296,1.04,0,100.0,0.0,1.0,0.0,0.0,1.0,1,100.0,41.36,5.32,1,1.0,0,1.0,0,1.0,0,1.0,0,1.0
73,'99',45.299,-32.744,550.0,-550.0,1.0,0,100.0,0.0,1.0,0.0,0.0,1.0,1,100.0,1500.0,40.769,1,1.0,0,1.0,0,1.0,0,1.0,0,1.0
75,'1',275.102,-18.093,425.895,-425.895,1.04,0,1020.0,0.0033,0.243,0.0014,0.1257,1.0,1,100.0,2000.0,10.0,1,1.0,0,1.0,0,1.0,0,1.0,0,1.0
75,'2',467.82,-30.768,426.656,-426.656,1.04,0,1020.0,0.0033,0.243,0.0014,0.1257,1.0,1,100.0,2000.0,10.0,1,1.0,0,1.0,0,1.0,0,1.0,0,1.0
78,'99',3.1,-46.999,550.0,-550.0,1.0085,0,100.0,0.0,1.0,0.0,0.0,1.0,1,100.0,1500.0,3.0,1,1.0,0,1.0,0,1.0,0,1.0,0,1.0
96,'99',6.856,-87.73,550.0,-550.0,1.0133,0,100.0,0.0,1.0,0.0,0.0,1.0,1,100.0,1500.0,6.17,1,1.0,0,1.0,0,1.0,0,1.0,0,1.0
112,'97',3.1,-3.66,3.66,-3.66,1.01,0,100.0,0.0,0.1,0.0,0.0,1.0,1,100.0,40.0,3.0,1,1.0,0,1.0,0,1.0,0,1.0,0,1.0
116,'99',3.1,-16.085,51.286,-51.286,1.0311,0,100.0,0.0,1.0,0.0,0.0,1.0,1,100.0,228.172,3.0,1,1.0,0,1.0,0,1.0,0,1.0,0,1.0
119,'1',0.0,0.0,284.382,-284.382,1.04,0,686.0,0.0,0.195,0.0,0.0,1.0,0,100.0,914.118,45.706,1,1.0,0,1.0,0,1.0,0,1.0,0,1.0
129,'1',3.1,-3.738,281.019,-281.019,1.0239,0,686.0,0.0,0.195,0.0,0.0,1.0,1,100.0,1250.255,3.0,1,1.0,0,1.0,0,1.0,0,1.0,0,1.0
141,'99',138.897,-47.212,550.0,-550.0,1.0393,0,100.0,0.0,1.0,0.0,0.0,1.0,1,100.0,1500.0,75.0,1,1.0,0,1.0,0,1.0,0,1.0,0,1.0
147,'1',3.1,-9.607,9.607,-9.607,1.0298,0,100.0,0.0,1.0,0.0,0.0,1.0,1,100.0,40.0,3.0,1,1.0,0,1.0,0,1.0,0,1.0,0,1.0
151,'1',0.0,0.0,120.323,-120.323,1.013,0,100.0,0.0,1.0,0.0,0.0,1.0,0,100.0,386.765,19.338,1,1.0,0,1.0,0,1.0,0,1.0,0,1.0
152,'1',0.0,0.0,135.878,-135.878,1.04,0,35.0,0.0,0.8,0.0,0.0,1.0,0,100.0,436.765,5.7,1,1.0,0,1.0,0,1.0,0,1.0,0,1.0
154,'1',3.1,-39.228,135.42,-135.42,1.01,0,100.0,0.0,1.0,0.0,0.0,1.0,1,100.0,512.111,3.0,1,1.0,0,1.0,0,1.0,0,1.0,0,1.0
160,'1',3.1,0.0,16.813,-16.813,1.0199,0,40.6,0.0,0.15,0.0002,0.0548,1.025,0,100.0,54.044,3.0,1,1.0,0,1.0,0,1.0,0,1.0,0,1.0
163,'1',0.0,0.0,32.357,-32.357,1.0249,0,60.67,0.0,0.15,0.0,0.0,1.01,0,100.0,104.007,9.5,1,1.0,0,1.0,0,1.0,0,1.0,0,1.0
178,'1',3.1,0.0,8.321,-8.321,1.04,0,52.5,0.0,0.8,0.0,0.0,1.0,0,100.0,26.746,3.0,1,1.0,0,1.0,0,1.0,0,1.0,0,1.0
179,'1',0.0,0.0,56.044,-56.044,1.0265,0,102.0,0.0,0.15,0.0,0.0,1.005,0,100.0,180.147,38.0,1,1.0,0,1.0,0,1.0,0,1.0,0,1.0
182,'1',0.0,0.0,10.426,-10.426,1.0235,0,38.65,0.0,0.8,0.0,0.0,1.0,0,100.0,33.515,7.79,1,1.0,0,1.0,0,1.0,0,1.0,0,1.0
192,'1',0.0,0.0,134.962,-134.962,1.0095,0,100.0,0.0,0.18599,0.0,0.0,1.0,0,100.0,433.824,21.691,1,1.0,0,1.0,0,1.0,0,1.0,0,1.0
196,'1',3.1,0.0,11.929,-11.929,1.0235,0,38.65,0.0,0.8,0.0,0.0,1.0,0,100.0,38.346,3.0,1,1.0,0,1.0,0,1.0,0,1.0,0,1.0
199,'1',0.0,0.0,14.745,-14.745,1.0298,0,126.32,0.0,0.8,0.0,0.0,1.0,0,100.0,47.397,19.66,1,1.0,0,1.0,0,1.0,0,1.0,0,1.0
199,'2',0.0,0.0,24.019,-24.019,1.0298,0,100.0,0.0,1.0,0.0,0.0,1.0,0,100.0,77.206,3.86,1,1.0,0,1.0,0,1.0,0,1.0,0,1.0
199,'3',3.1,0.0,9.607,-9.607,1.0298,0,100.0,0.0,1.0,0.0,0.0,1.0,0,100.0,30.882,3.0,1,1.0,0,1.0,0,1.0,0,1.0,0,1.0
211,'1',3.1,-4.303,11.209,-11.209,1.0182,0,100.0,0.0,1.0,0.0,0.0,1.0,1,100.0,40.0,3.0,1,1.0,0,1.0,0,1.0,0,1.0,0,1.0
217,'1',0.0,0.0,297.832,-297.832,1.0,0,733.0,0.0,0.295,0.0,0.0,1.0,0,100.0,957.353,304.0,1,1.0,0,1.0,0,1.0,0,1.0,0,1.0
224,'1',0.0,0.0,431.367,-431.367,1.0116,0,650.0,0.0,0.225,0.0,0.0,1.0,0,100.0,1386.585,427.4,1,1.0,0,1.0,0,1.0,0,1.0,0,1.0
237,'1',0.0,0.0,10.34,-10.34,1.0303,0,100.0,0.0,1.0,0.0,0.0,1.0,0,100.0,33.235,7.6,1,1.0,0,1.0,0,1.0,0,1.0,0,1.0
243,'99',9.97,-58.777,550.0,-550.0,1.0124,0,100.0,0.0,1.0,0.0,0.0,1.0,1,100.0,1500.0,8.973,1,1.0,0,1.0,0,1.0,0,1.0,0,1.0
252,'1',0.0,0.0,69.06,-69.06,1.02,0,250.0,0.0,0.243,0.0,0.0,1.0,0,100.0,221.985,11.099,1,1.0,0,1.0,0,1.0,0,1.0,0,1.0
257,'1',0.0,0.0,24.979,-24.979,1.01,0,25.98,0.0,0.195,0.0,0.0,1.0,0,100.0,80.294,20.65,1,1.0,0,1.0,0,1.0,0,1.0,0,1.0
263,'1',0.0,0.0,21.617,-21.617,1.0207,0,43.45,0.0,0.165,0.0,0.0,1.0,0,100.0,81.747,4.087,1,1.0,0,1.0,0,1.0,0,1.0,0,1.0
267,'99',3.1,49.827,550.0,-550.0,1.0348,0,100.0,0.0,1.0,0.0,0.0,1.0,1,100.0,1500.0,3.0,1,1.0,0,1.0,0,1.0,0,1.0,0,1.0
269,'99',42.984,-9.64,550.0,-550.0,1.0363,0,100.0,0.0,1.0,0.0,0.0,1.0,1,100.0,1500.0,38.686,1,1.0,0,1.0,0,1.0,0,1.0,0,1.0
274,'1',0.0,0.0,18.735,-18.735,1.01,0,44.0,0.0,0.195,0.0,0.0,1.0,0,100.0,70.848,4.75,1,1.0,0,1.0,0,1.0,0,1.0,0,1.0
286,'99',199.138,-168.112,550.0,-550.0,1.02,0,100.0,0.0,1.0,0.0,0.0,1.0,1,100.0,1500.0,75.0,1,1.0,0,1.0,0,1.0,0,1.0,0,1.0
293,'1',4.75,26.764,26.764,-26.764,1.03,0,73.0,0.0,0.132,0.0,0.0,1.0,1,100.0,119.072,4.75,1,1.0,0,1.0,0,1.0,0,1.0,0,1.0
302,'1',0.0,0.0,120.323,-120.323,1.0238,0,6.25,0.0,0.15,0.0,0.0,1.025,0,100.0,386.765,5.142,1,1.0,0,1.0,0,1.0,0,1.0,0,1.0
305,'1',271.0,-3.856,123.982,-123.982,1.0194,0,100.0,0.0,1.0,0.0,0.0,1.0,1,100.0,551.598,27.58,1,1.0,0,1.0,0,1.0,0,1.0,0,1.0
314,'1',0.0,0.0,307.92,-307.92,1.01,0,370.6,0.0,0.2489,0.0,0.0,1.0,0,100.0,989.779,251.2,1,1.0,0,1.0,0,1.0,0,1.0,0,1.0
322,'99',41.172,-14.208,550.0,-550.0,1.0,0,100.0,0.0,1.0,0.0,0.0,1.0,1,100.0,1500.0,37.055,1,1.0,0,1.0,0,1.0,0,1.0,0,1.0
332,'1',0.0,0.0,48.037,-48.037,1.0229,0,100.0,0.0,1.0,0.0,0.0,1.0,0,100.0,181.661,4.5,1,1.0,0,1.0,0,1.0,0,1.0,0,1.0
333,'1',3.1,0.0,7.206,-7.206,1.03,0,100.0,0.0,1.0,0.0,0.0,1.0,0,100.0,23.162,3.0,1,1.0,0,1.0,0,1.0,0,1.0,0,1.0
336,'1',0.0,0.0,86.467,-86.467,1.0314,0,234.0,0.0,0.1796,0.0,0.0,1.0,0,100.0,326.99,94.05,1,1.0,0,1.0,0,1.0,0,1.0,0,1.0
339,'1',1.95,-93.157,117.578,-117.578,1.0017,0,100.0,0.0,1.0,0.0,0.0,1.0,1,100.0,523.102,1.95,1,1.0,0,1.0,0,1.0,0,1.0,0,1.0
350,'1',0.0,0.0,66.292,-66.292,1.04,0,43.45,0.0,0.165,0.0,0.0,1.0,0,100.0,213.088,25.933,1,1.0,0,1.0,0,1.0,0,1.0,0,1.0
351,'99',151.295,-140.665,550.0,-550.0,1.02,0,100.0,0.0,1.0,0.0,0.0,1.0,1,100.0,1500.0,75.0,1,1.0,0,1.0,0,1.0,0,1.0,0,1.0
352,'1',0.0,0.0,215.089,-215.089,1.01,0,100.0,0.0,1.0,0.0,0.0,1.0,0,100.0,691.382,34.569,1,1.0,0,1.0,0,1.0,0,1.0,0,1.0
353,'1',0.0,0.0,101.107,-101.107,1.0314,0,213.4,0.0,0.1796,0.0,0.0,1.0,0,100.0,325.0,94.05,1,1.0,0,1.0,0,1.0,0,1.0,0,1.0
356,'1',3.1,0.0,128.1,-128.1,1.0033,0,100.0,0.0,1.0,0.0,0.0,1.0,0,100.0,411.765,3.0,1,1.0,0,1.0,0,1.0,0,1.0,0,1.0
358,'2',1.083,-123.525,123.525,-123.525,1.0029,0,100.0,0.0,1.0,0.0,0.0,1.0,1,100.0,549.562,1.083,1,1.0,0,1.0,0,1.0,0,1.0,0,1.0
359,'1',0.0,0.0,243.07,-243.07,1.0245,0,595.0,0.0,0.225,0.0026,0.1541,1.0,0,100.0,781.324,124.8,1,1.0,0,1.0,0,1.0,0,1.0,0,1.0
368,'1',30.0,-6.605,25.986,-25.986,1.0184,0,71.18,0.0,0.144,0.0,0.0,1.0,1,100.0,115.612,5.781,1,1.0,0,1.0,0,1.0,0,1.0,0,1.0
371,'1',0.0,0.0,122.152,-122.152,1.0257,0,64.7,0.0,0.096,0.0,0.0,1.0,0,100.0,461.938,14.58,1,1.0,0,1.0,0,1.0,0,1.0,0,1.0
371,'2',0.0,0.0,118.95,-118.95,1.0257,0,64.7,0.0,0.096,0.0,0.0,1.0,0,100.0,382.353,19.118,1,1.0,0,1.0,0,1.0,0,1.0,0,1.0
371,'3',0.0,0.0,19.627,-19.627,1.0257,0,49.4,0.0,0.101,0.0,0.0,1.0,0,100.0,63.088,13.46,1,1.0,0,1.0,0,1.0,0,1.0,0,1.0
372,'1',0.0,0.0,86.467,-86.467,1.01,0,213.4,0.0,0.1796,0.0,0.0,1.0,0,100.0,277.941,13.897,1,1.0,0,1.0,0,1.0,0,1.0,0,1.0
375,'1',0.0,0.0,21.617,-21.617,1.03,0,43.45,0.0,0.165,0.0,0.0,1.0,0,100.0,69.485,4.75,1,1.0,0,1.0,0,1.0,0,1.0,0,1.0
379,'1',553.35,70.736,253.158,-253.158,1.01,0,382.6,0.0,0.193,0.0,0.0,1.0,1,100.0,1126.297,125.708,1,1.0,0,1.0,0,1.0,0,1.0,0,1.0
382,'1',0.0,0.0,86.467,-86.467,1.0314,0,234.0,0.0,0.1796,0.0,0.0,1.0,0,100.0,277.941,94.05,1,1.0,0,1.0,0,1.0,0,1.0,0,1.0
388,'99',31.783,-100.219,550.0,-550.0,1.0347,0,100.0,0.0,1.0,0.0,0.0,1.0,1,100.0,1500.0,28.605,1,1.0,0,1.0,0,1.0,0,1.0,0,1.0
392,'1',2.025,-94.27,116.663,-116.663,1.01,0,100.0,0.0,1.0,0.0,0.0,1.0,1,100.0,519.031,2.025,1,1.0,0,1.0,0,1.0,0,1.0,0,1.0
398,'1',3.1,-0.252,124.44,-124.44,1.0348,0,19.0,0.0,0.181,0.0,0.0,1.045,1,100.0,553.633,3.0,1,1.0,0,1.0,0,1.0,0,1.0,0,1.0
401,'1',0.0,0.0,312.244,-312.244,1.0314,0,369.0,0.0,0.2489,0.0,0.0,1.0,0,100.0,1003.676,127.708,1,1.0,0,1.0,0,1.0,0,1.0,0,1.0
412,'99',28.775,-60.133,550.0,-550.0,1.0,0,100.0,0.0,1.0,0.0,0.0,1.0,1,100.0,1500.0,25.897,1,1.0,0,1.0,0,1.0,0,1.0,0,1.0
414,'99',20.616,2.478,550.0,-550.0,1.0277,0,100.0,0.0,1.0,0.0,0.0,1.0,1,100.0,1500.0,18.554,1,1.0,0,1.0,0,1.0,0,1.0,0,1.0
421,'1',3.1,-212.975,605.021,-605.021,1.0252,0,100.0,0.0,1.0,0.0,0.0,1.0,1,100.0,40.0,3.0,1,1.0,0,1.0,0,1.0,0,1.0,0,1.0
431,'99',3.0,89.145,550.0,-550.0,1.0431,0,100.0,0.0,1.0,0.0,0.0,1.0,1,100.0,1500.0,3.0,1,1.0,0,1.0,0,1.0,0,1.0,0,1.0
433,'99',3.0,37.012,550.0,-550.0,1.0389,0,100.0,0.0,1.0,0.0,0.0,1.0,1,100.0,1500.0,3.0,1,1.0,0,1.0,0,1.0,0,1.0,0,1.0
442,'99',10.403,53.232,550.0,-550.0,1.0361,0,100.0,0.0,1.0,0.0,0.0,1.0,1,100.0,1500.0,9.363,1,1.0,0,1.0,0,1.0,0,1.0,0,1.0
456,'99',85.712,247.1,550.0,-550.0,1.0461,0,100.0,0.0,1.0,0.0,0.0,1.0,1,100.0,1500.0,75.0,1,1.0,0,1.0,0,1.0,0,1.0,0,1.0
468,'1',28.5,11.868,28.431,-28.431,1.03,0,58.71,0.0,0.284,0.0,0.0,1.0,1,100.0,126.491,28.5,1,1.0,0,1.0,0,1.0,0,1.0,0,1.0
474,'1',0.0,0.0,133.133,-133.133,1.03,0,52.94,0.0,0.2,0.0,0.0,1.0,0,100.0,427.941,21.397,1,1.0,0,1.0,0,1.0,0,1.0,0,1.0
474,'2',0.0,0.0,19.215,-19.215,1.03,0,52.94,0.0,0.2,0.0,0.0,1.0,0,100.0,61.765,14.25,1,1.0,0,1.0,0,1.0,0,1.0,0,1.0
506,'1',0.0,0.0,119.408,-119.408,1.0,0,250.0,0.0,0.3,0.0,0.0,0.9706,0,100.0,383.824,19.191,1,1.0,0,1.0,0,1.0,0,1.0,0,1.0
510,'99',3.1,-62.025,550.0,-550.0,1.0272,0,100.0,0.0,1.0,0.0,0.0,1.0,1,100.0,1500.0,3.0,1,1.0,0,1.0,0,1.0,0,1.0,0,1.0
543,'99',144.816,-27.497,550.0,-550.0,1.0191,0,100.0,0.0,1.0,0.0,0.0,1.0,1,100.0,1500.0,75.0,1,1.0,0,1.0,0,1.0,0,1.0,0,1.0
563,'1',0.0,0.0,384.3,-384.3,1.0146,0,100.0,0.0,1.0,0.0,0.0,1.0,0,100.0,1235.294,61.765,1,1.0,0,1.0,0,1.0,0,1.0,0,1.0
566,'1',3.1,-161.744,368.928,-368.928,1.0124,0,841.0,0.0,0.25,0.0,0.0,0.0,1,100.0,1395.156,3.0,1,1.0,0,1.0,0,1.0,0,1.0,0,1.0
569,'99',5.101,-29.638,550.0,-550.0,1.0293,0,100.0,0.0,1.0,0.0,0.0,1.0,1,100.0,1500.0,4.591,1,1.0,0,1.0,0,1.0,0,1.0,0,1.0
579,'1',254.1,-64.897,116.251,-116.251,1.0135,0,100.0,0.0,1.0,0.0,0.0,1.0,1,100.0,517.199,25.86,1,1.0,0,1.0,0,1.0,0,1.0,0,1.0
582,'1',3.1,-139.473,320.404,-320.404,1.0,0,659.0,0.0117,0.28,0.0,0.0,0.0,1,100.0,1425.478,3.0,1,1.0,0,1.0,0,1.0,0,1.0,0,1.0
584,'99',3.1,-24.181,24.181,-24.181,1.01,0,100.0,0.0,1.0,0.0,0.0,1.0,1,100.0,40.0,3.0,1,1.0,0,1.0,0,1.0,0,1.0,0,1.0
588,'1',0.0,0.0,22.578,-22.578,1.04,0,100.0,0.0,1.0,0.0,0.0,1.0,0,100.0,72.574,3.629,1,1.0,0,1.0,0,1.0,0,1.0,0,1.0
609,'99',3.1,-9.867,550.0,-550.0,1.017,0,100.0,0.0,1.0,0.0,0.0,1.0,1,100.0,1500.0,3.0,1,1.0,0,1.0,0,1.0,0,1.0,0,1.0
614,'1',3.1,-139.629,270.451,-270.451,1.03,0,100.0,0.0,1.0,0.0,0.0,1.0,1,100.0,1203.236,3.0,1,1.0,0,1.0,0,1.0,0,1.0,0,1.0
626,'1',0.0,0.0,319.141,-319.141,1.0,0,659.0,0.0117,0.28,0.0,0.0,0.0,0,100.0,1025.846,51.292,1,1.0,0,1.0,0,1.0,0,1.0,0,1.0
629,'1',0.0,0.0,174.857,-174.857,1.03,0,100.0,0.0,1.0,0.0,0.0,1.0,0,100.0,562.059,28.103,1,1.0,0,1.0,0,1.0,0,1.0,0,1.0
630,'1',0.0,0.0,29.303,-29.303,1.03,0,55.0,0.0,0.138,0.0,0.0,0.0,0,100.0,94.191,4.71,1,1.0,0,1.0,0,1.0,0,1.0,0,1.0
630,'2',0.0,0.0,26.421,-26.421,1.03,0,55.0,0.0,0.138,0.0,0.0,0.0,0,100.0,84.926,4.246,1,1.0,0,1.0,0,1.0,0,1.0,0,1.0
630,'3',21.75,-26.421,26.421,-26.421,1.03,0,55.0,0.0,0.138,0.0,0.0,0.0,1,100.0,117.545,3.375,1,1.0,0,1.0,0,1.0,0,1.0,0,1.0
630,'4',3.1,-30.744,30.744,-30.744,1.03,0,55.0,0.0,0.138,0.0,0.0,0.0,1,100.0,136.78,3.0,1,1.0,0,1.0,0,1.0,0,1.0,0,1.0
630,'5',0.0,0.0,25.94,-25.94,1.03,0,55.0,0.0,0.138,0.0,0.0,0.0,0,100.0,83.382,4.169,1,1.0,0,1.0,0,1.0,0,1.0,0,1.0
630,'6',0.0,0.0,25.94,-25.94,1.03,0,55.0,0.0,0.138,0.0,0.0,0.0,0,100.0,83.382,4.169,1,1.0,0,1.0,0,1.0,0,1.0,0,1.0
634,'2',3.1,0.0,7.206,-7.206,1.03,0,19.0,0.0,0.155,0.0,0.15,1.0,0,100.0,23.162,3.0,1,1.0,0,1.0,0,1.0,0,1.0,0,1.0
638,'1',621.329,-87.13,293.99,-293.99,1.0185,0,718.0,0.0,0.308,0.0,0.0,0.0,1,100.0,1307.958,65.398,1,1.0,0,1.0,0,1.0,0,1.0,0,1.0
652,'1',0.0,0.0,22.578,-22.578,1.003,0,55.6,0.0,0.16,0.0,0.0,0.0,0,100.0,72.574,3.629,1,1.0,0,1.0,0,1.0,0,1.0,0,1.0
652,'2',0.0,0.0,22.578,-22.578,1.003,0,55.6,0.0,0.16,0.0,0.0,0.0,0,100.0,72.574,3.629,1,1.0,0,1.0,0,1.0,0,1.0,0,1.0
652,'3',3.1,0.0,23.538,-23.538,1.003,0,55.6,0.0,0.16,0.0,0.0,0.0,0,100.0,75.662,3.0,1,1.0,0,1.0,0,1.0,0,1.0,0,1.0
652,'4',290.0,-114.45,132.675,-132.675,1.003,0,55.6,0.0,0.16,0.0,0.0,0.0,1,100.0,590.271,29.514,1,1.0,0,1.0,0,1.0,0,1.0,0,1.0
652,'5',0.0,0.0,134.048,-134.048,1.003,0,195.6,0.0,0.192,0.0,0.0,0.0,0,100.0,430.882,21.544,1,1.0,0,1.0,0,1.0,0,1.0,0,1.0
652,'6',3.1,0.0,9.887,-9.887,1.003,0,195.6,0.0,0.192,0.0,0.0,0.0,0,100.0,31.779,3.0,1,1.0,0,1.0,0,1.0,0,1.0,0,1.0
664,'99',12.893,-46.342,550.0,-550.0,1.0247,0,100.0,0.0,1.0,0.0,0.0,1.0,1,100.0,1500.0,11.604,1,1.0,0,1.0,0,1.0,0,1.0,0,1.0
669,'1',3.1,0.0,286.784,-286.784,1.0,0,704.0,0.0091,0.26,0.0,0.0,0.0,0,100.0,921.838,3.0,1,1.0,0,1.0,0,1.0,0,1.0,0,1.0
682,'97',3.1,-3.66,3.66,-3.66,1.01,0,100.0,0.0,0.1,0.0,0.0,1.0,1,100.0,40.0,3.0,1,1.0,0,1.0,0,1.0,0,1.0,0,1.0
686,'1',0.0,0.0,364.605,-364.605,1.0124,0,841.0,0.0,0.25,0.0,0.0,0.0,0,100.0,1171.985,58.599,1,1.0,0,1.0,0,1.0,0,1.0,0,1.0
696,'99',24.764,-195.777,550.0,-550.0,1.0119,0,100.0,0.0,1.0,0.0,0.0,1.0,1,100.0,1500.0,22.288,1,1.0,0,1.0,0,1.0,0,1.0,0,1.0
698,'97',3.1,-3.66,3.66,-3.66,1.01,0,100.0,0.0,0.1,0.0,0.0,1.0,1,100.0,40.0,3.0,1,1.0,0,1.0,0,1.0,0,1.0,0,1.0
702,'1',3.1,0.0,443.386,-443.386,1.0124,0,1043.0,0.0,0.23,0.0,0.0,0.0,0,100.0,1425.221,3.0,1,1.0,0,1.0,0,1.0,0,1.0,0,1.0
715,'1',0.0,0.0,129.015,-129.015,1.03,0,100.0,0.0,1.0,0.0,0.0,1.0,0,100.0,414.706,20.735,1,1.0,0,1.0,0,1.0,0,1.0,0,1.0
719,'1',3.1,0.0,30.744,-30.744,1.0186,0,47.62,0.0,0.258,0.0,0.175,1.0,0,100.0,98.824,3.0,1,1.0,0,1.0,0,1.0,0,1.0,0,1.0
722,'1',0.0,0.0,31.224,-31.224,1.015,0,100.0,0.0,1.0,0.0,0.0,1.0,0,100.0,100.368,5.018,1,1.0,0,1.0,0,1.0,0,1.0,0,1.0
728,'1',0.0,0.0,122.015,-122.015,1.0,0,194.91,0.0,0.225,0.0,0.0,1.0,0,100.0,392.206,19.61,1,1.0,0,1.0,0,1.0,0,1.0,0,1.0
730,'1',0.0,0.0,110.967,-110.967,1.0,0,194.45,0.0,0.225,0.0,0.0,1.0,0,100.0,419.637,20.982,1,1.0,0,1.0,0,1.0,0,1.0,0,1.0
732,'1',3.1,-12.561,111.218,-111.218,1.0,0,196.98,0.0,0.225,0.0,0.0,1.0,1,100.0,494.81,3.0,1,1.0,0,1.0,0,1.0,0,1.0,0,1.0
735,'1',0.0,0.0,30.264,-30.264,1.03,0,100.0,0.0,1.0,0.0,0.0,1.0,0,100.0,97.279,4.864,1,1.0,0,1.0,0,1.0,0,1.0,0,1.0
739,'1',3.1,0.0,12.009,-12.009,1.0162,0,100.0,0.0,1.0,0.0,0.0,1.0,0,100.0,38.603,3.0,1,1.0,0,1.0,0,1.0,0,1.0,0,1.0
742,'2',0.0,0.0,48.037,-48.037,1.0042,0,120.0,0.0,0.1187,0.0,0.0,1.0,0,100.0,154.412,2.85,1,1.0,0,1.0,0,1.0,0,1.0,0,1.0
748,'1',0.0,0.0,122.015,-122.015,1.0,0,195.49,0.0,0.225,0.0,0.0,1.0,0,100.0,392.206,19.61,1,1.0,0,1.0,0,1.0,0,1.0,0,1.0
765,'1',0.0,0.0,41.793,-41.793,1.03,0,100.0,0.0,1.0,0.0,0.0,1.0,0,100.0,134.338,6.717,1,1.0,0,1.0,0,1.0,0,1.0,0,1.0
770,'2',3.1,0.0,17.808,-17.808,1.0,0,100.0,0.0,1.0,0.0,0.0,1.0,0,100.0,57.243,3.0,1,1.0,0,1.0,0,1.0,0,1.0,0,1.0
770,'3',3.1,0.0,15.172,-15.172,1.0,0,100.0,0.0,1.0,0.0,0.0,1.0,0,100.0,48.768,3.0,1,1.0,0,1.0,0,1.0,0,1.0,0,1.0
774,'99',11.947,-62.602,550.0,-550.0,1.0184,0,100.0,0.0,1.0,0.0,0.0,1.0,1,100.0,1500.0,10.752,1,1.0,0,1.0,0,1.0,0,1.0,0,1.0
775,'1',3.1,0.0,111.384,-111.384,1.0,0,194.87,0.0,0.2436,0.0,0.0,1.0,0,100.0,358.033,3.0,1,1.0,0,1.0,0,1.0,0,1.0,0,1.0
783,'1',3.1,-31.317,111.052,-111.052,1.0,0,194.6,0.0,0.225,0.0,0.0,1.0,1,100.0,419.961,3.0,1,1.0,0,1.0,0,1.0,0,1.0,0,1.0
788,'99',3.1,-40.261,550.0,-550.0,1.0,0,100.0,0.0,1.0,0.0,0.0,1.0,1,100.0,1500.0,3.0,1,1.0,0,1.0,0,1.0,0,1.0,0,1.0
789,'99',3.1,-40.261,550.0,-550.0,1.0,0,100.0,0.0,1.0,0.0,0.0,1.0,1,100.0,1500.0,3.0,1,1.0,0,1.0,0,1.0,0,1.0,0,1.0
791,'1',3.1,-26.573,111.052,-111.052,1.0,0,194.3,0.0,0.225,0.0,0.0,1.0,1,100.0,494.072,3.0,1,1.0,0,1.0,0,1.0,0,1.0,0,1.0
792,'99',559.633,-67.376,550.0,-550.0,1.0025,0,100.0,0.0,1.0,0.0,0.0,1.0,1,100.0,1740.687,87.034,1,1.0,0,1.0,0,1.0,0,1.0,0,1.0
800,'1',0.0,0.0,31.224,-31.224,1.0025,0,100.0,0.0,1.0,0.0,0.0,1.0,0,100.0,100.368,5.018,1,1.0,0,1.0,0,1.0,0,1.0,0,1.0
801,'1',3.1,0.0,57.645,-57.645,1.0073,0,100.0,0.0,1.0,0.0,0.0,1.0,0,100.0,185.294,3.0,1,1.0,0,1.0,0,1.0,0,1.0,0,1.0
809,'99',49.185,-44.671,550.0,-550.0,1.0,0,100.0,0.0,1.0,0.0,0.0,1.0,1,100.0,1500.0,44.267,1,1.0,0,1.0,0,1.0,0,1.0,0,1.0
816,'1',0.0,0.0,127.643,-127.643,1.0054,0,128.0,0.0,0.17,0.0021,0.072,1.0,0,100.0,410.294,20.515,1,1.0,0,1.0,0,1.0,0,1.0,0,1.0
816,'2',3.8,-48.998,48.998,-48.998,1.0054,0,128.0,0.0,0.25,0.0021,0.072,1.0,1,100.0,217.993,3.8,1,1.0,0,1.0,0,1.0,0,1.0,0,1.0
816,'3',0.0,0.0,123.982,-123.982,1.0054,0,128.0,0.0,0.17,0.002,0.0725,1.0,0,100.0,398.529,19.926,1,1.0,0,1.0,0,1.0,0,1.0,0,1.0
816,'4',3.8,-48.998,48.998,-48.998,1.0054,0,128.0,0.0,0.25,0.002,0.0725,1.0,1,100.0,217.993,3.8,1,1.0,0,1.0,0,1.0,0,1.0,0,1.0
819,'1',0.0,0.0,638.226,-638.226,1.0263,0,100.0,0.0,1.0,0.0,0.0,1.0,0,100.0,2219.323,110.966,1,1.0,0,1.0,0,1.0,0,1.0,0,1.0
820,'1',3.1,0.0,112.476,-112.476,1.0,0,196.78,0.0,0.225,0.0,0.0,1.0,0,100.0,361.544,3.0,1,1.0,0,1.0,0,1.0,0,1.0,0,1.0
821,'1',0.0,0.0,111.132,-111.132,1.0,0,196.83,0.0,0.225,0.0,0.0,1.0,0,100.0,357.224,17.861,1,1.0,0,1.0,0,1.0,0,1.0,0,1.0
825,'1',3.1,-31.317,122.015,-122.015,1.0,0,195.2,0.0,0.225,0.0,0.0,1.0,1,100.0,542.846,3.0,1,1.0,0,1.0,0,1.0,0,1.0,0,1.0
829,'1',0.0,0.0,118.492,-118.492,1.03,0,100.0,0.0,1.0,0.0,0.0,1.0,0,100.0,380.882,8.1,1,1.0,0,1.0,0,1.0,0,1.0,0,1.0
836,'1',0.0,0.0,116.663,-116.663,1.0041,0,100.0,0.0,1.0,0.0,0.0,1.0,0,100.0,375.0,18.75,1,1.0,0,1.0,0,1.0,0,1.0,0,1.0
839,'1',3.1,0.0,15.315,-15.315,1.0,0,100.0,0.0,1.0,0.0,0.0,1.0,0,100.0,49.228,3.0,1,1.0,0,1.0,0,1.0,0,1.0,0,1.0
839,'3',3.1,0.0,15.338,-15.338,1.0,0,100.0,0.0,1.0,0.0,0.0,1.0,0,100.0,49.301,3.0,1,1.0,0,1.0,0,1.0,0,1.0,0,1.0
840,'1',3.1,0.0,110.549,-110.549,1.0,0,193.42,0.0,0.2436,0.0,0.0,1.0,0,100.0,418.058,3.0,1,1.0,0,1.0,0,1.0,0,1.0,0,1.0
842,'1',121.877,-41.55,48.518,-48.518,1.03,0,100.0,0.0,1.0,0.0,0.0,1.0,1,100.0,215.856,3.0,1,1.0,0,1.0,0,1.0,0,1.0,0,1.0
850,'99',49.185,-44.671,550.0,-550.0,1.0,0,100.0,0.0,1.0,0.0,0.0,1.0,1,100.0,1500.0,44.267,1,1.0,0,1.0,0,1.0,0,1.0,0,1.0
859,'1',0.0,0.0,31.224,-31.224,1.0156,0,100.0,0.0,1.0,0.0,0.0,1.0,0,100.0,100.368,5.018,1,1.0,0,1.0,0,1.0,0,1.0,0,1.0
862,'1',3.1,-31.317,111.721,-111.721,1.0,0,195.77,0.0,0.26,0.0,0.0,1.0,1,100.0,497.049,3.0,1,1.0,0,1.0,0,1.0,0,1.0,0,1.0
863,'1',3.1,0.0,15.652,-15.652,1.0,0,100.0,0.0,1.0,0.0,0.0,1.0,0,100.0,50.312,3.0,1,1.0,0,1.0,0,1.0,0,1.0,0,1.0
864,'3',3.1,0.0,15.269,-15.269,1.0,0,100.0,0.0,1.0,0.0,0.0,1.0,0,100.0,49.081,3.0,1,1.0,0,1.0,0,1.0,0,1.0,0,1.0
869,'1',234.15,-100.017,107.124,-107.124,1.0141,0,100.0,0.0,1.0,0.0,0.0,1.0,1,100.0,476.593,7.6,1,1.0,0,1.0,0,1.0,0,1.0,0,1.0
873,'1',0.0,0.0,591.096,-591.096,1.01,0,716.2,0.0,0.215,0.0,0.0,1.0,0,100.0,1900.019,524.545,1,1.0,0,1.0,0,1.0,0,1.0,0,1.0
880,'1',0.0,0.0,133.59,-133.59,1.0,0,100.0,0.0,1.0,0.0,0.0,1.0,0,100.0,429.412,3.42,1,1.0,0,1.0,0,1.0,0,1.0,0,1.0
906,'1',0.0,0.0,305.038,-305.038,1.018,0,716.2,0.0,0.215,0.0,0.0,1.0,0,100.0,980.515,209.0,1,1.0,0,1.0,0,1.0,0,1.0,0,1.0
926,'99',354.98,115.952,550.0,-550.0,1.0378,0,100.0,0.0,1.0,0.0,0.0,1.0,1,100.0,1500.0,75.0,1,1.0,0,1.0,0,1.0,0,1.0,0,1.0
938,'1',0.0,0.0,14.411,-14.411,1.04,0,37.5,0.0,0.154,0.0,0.0,1.0,0,100.0,46.324,17.033,1,1.0,0,1.0,0,1.0,0,1.0,0,1.0
938,'2',0.0,0.0,14.411,-14.411,1.04,0,37.5,0.0,0.171,0.0,0.0,1.0,0,100.0,46.324,16.7,1,1.0,0,1.0,0,1.0,0,1.0,0,1.0
938,'6',0.0,0.0,14.411,-14.411,1.04,0,36.0,0.0,0.194,0.0,0.0,1.0,0,100.0,46.324,8.633,1,1.0,0,1.0,0,1.0,0,1.0,0,1.0
961,'99',35.861,-38.056,550.0,-550.0,1.0134,0,100.0,0.0,1.0,0.0,0.0,1.0,1,100.0,1500.0,32.275,1,1.0,0,1.0,0,1.0,0,1.0,0,1.0
965,'99',83.2,-153.89,550.0,-550.0,1.0217,0,100.0,0.0,1.0,0.0,0.0,1.0,1,100.0,1500.0,75.0,1,1.0,0,1.0,0,1.0,0,1.0,0,1.0
987,'1',36.65,-23.779,23.779,-23.779,1.01,0,60.0,0.0,0.17,0.0,0.0,1.0,1,100.0,105.791,6.65,1,1.0,0,1.0,0,1.0,0,1.0,0,1.0
992,'1',0.0,0.0,31.032,-31.032,1.0,0,64.1,0.0,0.31,0.0014,0.0937,1.0,0,100.0,99.75,4.988,1,1.0,0,1.0,0,1.0,0,1.0,0,1.0
992,'8',0.0,0.0,128.1,-128.1,1.0,0,1.5,0.0,0.233,0.0,0.0,1.0,0,100.0,411.765,20.588,1,1.0,0,1.0,0,1.0,0,1.0,0,1.0
992,'9',0.0,0.0,116.663,-116.663,1.0,0,100.0,0.0,1.0,0.0,0.0,1.0,0,100.0,375.0,18.75,1,1.0,0,1.0,0,1.0,0,1.0,0,1.0
992,'A',167.58,-55.08,129.93,-129.93,1.0,0,13.0,0.0,0.26,0.0003,0.02,1.0,1,100.0,578.058,1.9,1,1.0,0,1.0,0,1.0,0,1.0,0,1.0
996,'99',11.413,151.506,550.0,-550.0,1.013,0,100.0,0.0,1.0,0.0,0.0,1.0,1,100.0,1500.0,10.272,1,1.0,0,1.0,0,1.0,0,1.0,0,1.0
1007,'PS',0.0,0.0,0.091,-0.091,1.0,0,100.0,0.0,1.0,0.0,0.0,1.0,0,100.0,0.294,0.1,304,1.0,0,1.0,0,1.0,0,1.0,0,1.0
1048,'1',0.0,0.0,114.375,-114.375,1.0,0,100.0,0.0,1.0,0.0,0.0,1.0,0,100.0,367.647,1.267,1,1.0,0,1.0,0,1.0,0,1.0,0,1.0
1056,'1',78.5,-27.17,81.664,-81.664,1.0,0,246.0,0.0,0.222,0.0,0.0,1.0,1,100.0,363.322,57.0,1,1.0,0,1.0,0,1.0,0,1.0,0,1.0
1061,'99',37.631,-103.746,550.0,-550.0,1.0,0,100.0,0.0,1.0,0.0,0.0,1.0,1,100.0,1500.0,33.868,1,1.0,0,1.0,0,1.0,0,1.0,0,1.0
1065,'PS',0.0,0.0,0.091,-0.091,1.0,0,100.0,0.0,1.0,0.0,0.0,1.0,0,100.0,0.294,0.1,304,1.0,0,1.0,0,1.0,0,1.0,0,1.0
1077,'99',10.204,-264.647,550.0,-550.0,1.0043,0,100.0,0.0,1.0,0.0,0.0,1.0,1,100.0,1500.0,9.184,1,1.0,0,1.0,0,1.0,0,1.0,0,1.0
1086,'PS',0.0,0.0,0.091,-0.091,1.0,0,100.0,0.0,1.0,0.0,0.0,1.0,0,100.0,0.294,0.1,304,1.0,0,1.0,0,1.0,0,1.0,0,1.0
1092,'1',0.0,0.0,126.27,-126.27,1.02,0,225.0,0.0,0.202,0.0,0.0,1.0,0,100.0,405.882,3.6,1,1.0,0,1.0,0,1.0,0,1.0,0,1.0
1092,'2',0.0,0.0,59.534,-59.534,1.02,0,154.0,0.0,0.229,0.0,0.0,1.0,0,100.0,191.368,50.18,1,1.0,0,1.0,0,1.0,0,1.0,0,1.0
1139,'99',34.804,-55.295,550.0,-550.0,1.0,0,100.0,0.0,1.0,0.0,0.0,1.0,1,100.0,1500.0,31.324,1,1.0,0,1.0,0,1.0,0,1.0,0,1.0
1140,'99',17.708,-43.583,550.0,-550.0,1.0,0,100.0,0.0,1.0,0.0,0.0,1.0,1,100.0,1500.0,15.937,1,1.0,0,1.0,0,1.0,0,1.0,0,1.0
1142,'1',0.0,0.0,122.068,-122.068,1.01,0,100.0,0.0,1.0,0.0,0.0,1.0,0,100.0,392.376,19.619,1,1.0,0,1.0,0,1.0,0,1.0,0,1.0
1143,'1',3.1,0.0,122.068,-122.068,1.01,0,100.0,0.0,1.0,0.0,0.0,1.0,0,100.0,543.082,3.0,1,1.0,0,1.0,0,1.0,0,1.0,0,1.0
1144,'1',3.1,0.0,122.068,-122.068,1.01,0,100.0,0.0,1.0,0.0,0.0,1.0,0,100.0,392.376,3.0,1,1.0,0,1.0,0,1.0,0,1.0,0,1.0
1145,'1',3.1,0.0,122.065,-122.065,1.01,0,100.0,0.0,1.0,0.0,0.0,1.0,0,100.0,543.065,3.0,1,1.0,0,1.0,0,1.0,0,1.0,0,1.0
1146,'99',61.681,-19.556,550.0,-550.0,1.0,0,100.0,0.0,1.0,0.0,0.0,1.0,1,100.0,1500.0,55.513,1,1.0,0,1.0,0,1.0,0,1.0,0,1.0
1173,'1',3.1,0.0,7.411,-7.411,1.0,0,100.0,0.0,1.0,0.0,0.0,1.0,0,100.0,32.974,3.0,1,1.0,0,1.0,0,1.0,0,1.0,0,1.0
1175,'1',3.1,0.0,11.58,-11.58,1.01,0,100.0,0.0,1.0,0.0,0.0,1.0,0,100.0,37.224,3.0,1,1.0,0,1.0,0,1.0,0,1.0,0,1.0
1181,'1',31.45,-6.643,13.725,-13.725,1.01,0,100.0,0.0,1.0,0.0,0.0,1.0,1,100.0,61.062,3.053,1,1.0,0,1.0,0,1.0,0,1.0,0,1.0
1183,'1',3.1,0.0,13.725,-13.725,1.01,0,100.0,0.0,1.0,0.0,0.0,1.0,0,100.0,44.118,3.0,1,1.0,0,1.0,0,1.0,0,1.0,0,1.0
1185,'1',0.0,0.0,21.445,-21.445,1.01,0,100.0,0.0,1.0,0.0,0.0,1.0,0,100.0,68.934,3.447,1,1.0,0,1.0,0,1.0,0,1.0,0,1.0
1187,'1',0.0,0.0,21.445,-21.445,1.01,0,100.0,0.0,1.0,0.0,0.0,1.0,0,100.0,68.934,3.447,1,1.0,0,1.0,0,1.0,0,1.0,0,1.0
...
0 / END OF GENERATOR DATA BEGIN BRANCH DATA
1,31,'1',0.0013,0.0099,0.02132,260.0,312.0,390.0,0.0,0.0,0.0,0.0,1,2,0.0,1,1.0,0,1.0,0,1.0,0,1.0
3,7,'1',0.07479,0.29968,0.0,260.0,312.0,390.0,0.0,0.0,0.0,0.0,1,1,0.0,1,1.0,0,1.0,0,1.0,0,1.0
3,10,'1',1.0352,0.9,0.0,260.0,312.0,390.0,0.0,0.0,0.0,0.0,1,2,0.0,1,1.0,0,1.0,0,1.0,0,1.0
3,28,'1',0.03978,0.26486,0.0,260.0,312.0,390.0,0.0,0.0,0.0,0.0,1,2,0.0,1,1.0,0,1.0,0,1.0,0,1.0
3,29,'1',1.0789,0.9,0.0,260.0,312.0,390.0,0.0,0.0,0.0,0.0,1,2,0.0,1,1.0,0,1.0,0,1.0,0,1.0
3,33,'1',0.13857,0.28969,0.0,260.0,312.0,390.0,0.0,0.0,0.0,0.0,1,1,0.0,1,1.0,0,1.0,0,1.0,0,1.0
3,44,'1',0.07496,0.30013,0.0,260.0,312.0,390.0,0.0,0.0,0.0,0.0,1,1,0.0,1,1.0,0,1.0,0,1.0,0,1.0
4,9,'1',0.39394,0.9,0.0,260.0,312.0,390.0,0.0,0.0,0.0,0.0,1,1,0.0,1,1.0,0,1.0,0,1.0,0,1.0
4,15,'1',0.0111,0.16469,0.0,260.0,312.0,390.0,0.0,0.0,0.0,0.0,1,1,0.0,1,1.0,0,1.0,0,1.0,0,1.0
4,33,'1',0.05555,0.36498,0.0,260.0,312.0,390.0,0.0,0.0,0.0,0.0,1,1,0.0,1,1.0,0,1.0,0,1.0,0,1.0
5,9,'1',0.29041,0.5542,0.0,260.0,312.0,390.0,0.0,0.0,0.0,0.0,1,1,0.0,1,1.0,0,1.0,0,1.0,0,1.0
5,47,'1',0.15248,0.33587,0.0,260.0,312.0,390.0,0.0,0.0,0.0,0.0,1,1,0.0,1,1.0,0,1.0,0,1.0,0,1.0
6,16,'1',0.0042,0.0253,0.0485,260.0,312.0,390.0,0.0,0.0,0.0,0.0,1,1,0.0,1,1.0,0,1.0,0,1.0,0,1.0
6,54,'1',0.0046,0.0315,0.059,420.23,504.27,630.34,0.0,0.0,0.0,0.0,1,2,0.0,1,1.0,0,1.0,0,1.0,0,1.0
7,28,'1',-0.0656,0.84873,0.0,260.0,312.0,390.0,0.0,0.0,0.0,0.0,1,2,0.0,1,1.0,0,1.0,0,1.0,0,1.0
7,33,'1',0.15749,0.77703,0.0,260.0,312.0,390.0,0.0,0.0,0.0,0.0,1,1,0.0,1,1.0,0,1.0,0,1.0,0,1.0
7,44,'1',0.0162,0.1815,0.0,260.0,312.0,390.0,0.0,0.0,0.0,0.0,1,1,0.0,1,1.0,0,1.0,0,1.0,0,1.0
8,10,'1',-0.0598,0.2664,0.0,260.0,312.0,390.0,0.0,0.0,0.0,0.0,1,2,0.0,1,1.0,0,1.0,0,1.0,0,1.0
8,29,'1',-0.0578,0.27321,0.0,260.0,312.0,390.0,0.0,0.0,0.0,0.0,1,2,0.0,1,1.0,0,1.0,0,1.0,0,1.0
8,34,'1',0.01979,0.0496,0.0,260.0,312.0,390.0,0.0,0.0,0.0,0.0,1,2,0.0,1,1.0,0,1.0,0,1.0,0,1.0
9,10,'1',0.46671,0.9,0.0,260.0,312.0,390.0,0.0,0.0,0.0,0.0,1,2,0.0,1,1.0,0,1.0,0,1.0,0,1.0
9,15,'1',0.39058,0.9,0.0,260.0,312.0,390.0,0.0,0.0,0.0,0.0,1,2,0.0,1,1.0,0,1.0,0,1.0,0,1.0
9,29,'1',0.50043,0.9,0.0,260.0,312.0,390.0,0.0,0.0,0.0,0.0,1,2,0.0,1,1.0,0,1.0,0,1.0,0,1.0
9,33,'1',0.98041,0.9,0.0,260.0,312.0,390.0,0.0,0.0,0.0,0.0,1,1,0.0,1,1.0,0,1.0,0,1.0,0,1.0
9,34,'1',0.54064,0.64634,0.0,260.0,312.0,390.0,0.0,0.0,0.0,0.0,1,2,0.0,1,1.0,0,1.0,0,1.0,0,1.0
9,47,'1',0.14495,0.27334,0.0,260.0,312.0,390.0,0.0,0.0,0.0,0.0,1,1,0.0,1,1.0,0,1.0,0,1.0,0,1.0
10,28,'1',0.48924,0.9,0.0,260.0,312.0,390.0,0.0,0.0,0.0,0.0,1,1,0.0,1,1.0,0,1.0,0,1.0,0,1.0
10,29,'1',0.0009,0.0003,0.0,260.0,312.0,390.0,0.0,0.0,0.0,0.0,1,2,0.0,1,1.0,0,1.0,0,1.0,0,1.0
10,33,'1',0.95414,0.9,0.0,260.0,312.0,390.0,0.0,0.0,0.0,0.0,1,1,0.0,1,1.0,0,1.0,0,1.0,0,1.0
10,34,'1',0.01526,0.02962,0.0,260.0,312.0,390.0,0.0,0.0,0.0,0.0,1,1,0.0,1,1.0,0,1.0,0,1.0,0,1.0
11,47,'1',0.16551,0.4737,0.0,260.0,312.0,390.0,0.0,0.0,0.0,0.0,1,1,0.0,1,1.0,0,1.0,0,1.0,0,1.0
11,49,'1',0.04304,0.18584,0.0,260.0,312.0,390.0,0.0,0.0,0.0,0.0,1,1,0.0,1,1.0,0,1.0,0,1.0,0,1.0
12,18,'1',0.0136,0.0903,0.1732,260.0,312.0,390.0,0.0,0.0,0.0,0.0,1,1,0.0,1,1.0,0,1.0,0,1.0,0,1.0
12,961,'TL',0.0001,0.01,0.0,122.07,146.49,183.11,0.0,0.0,0.0,0.0,1,1,0.0,8,1.0,0,1.0,0,1.0,0,1.0
13,22,'1',0.0154,0.0991,0.17817,591.0,709.2,886.5,0.0,0.0,0.0,0.0,1,1,0.0,1,1.0,0,1.0,0,1.0,0,1.0
13,31,'1',0.0122,0.0943,0.18743,260.0,312.0,390.0,0.0,0.0,0.0,0.0,1,2,0.0,1,1.0,0,1.0,0,1.0,0,1.0
13,39,'1',0.0065,0.0503,0.10008,260.0,312.0,390.0,0.0,0.0,0.0,0.0,1,1,0.0,1,1.0,0,1.0,0,1.0,0,1.0
13,40,'1',0.0022,0.0262,0.05566,712.6,855.12,1068.9,0.0,0.0,0.0,0.0,1,1,0.0,1,1.0,0,1.0,0,1.0,0,1.0
13,40,'2',0.0027,0.0268,0.05696,707.9,849.48,1061.85,0.0,0.0,0.0,0.0,1,1,0.0,1,1.0,0,1.0,0,1.0,0,1.0
15,33,'1',0.05509,0.36182,0.0,260.0,312.0,390.0,0.0,0.0,0.0,0.0,1,1,0.0,1,1.0,0,1.0,0,1.0,0,1.0
16,1077,'TL',0.0001,0.01,0.0,222.0,244.2,266.4,0.0,0.0,0.0,0.0,1,1,0.0,9,1.0,0,1.0,0,1.0,0,1.0
17,43,'1',0.0123,0.0822,0.15137,357.0,392.7,428.4,0.0,0.0,0.0,0.0,1,2,0.0,1,1.0,0,1.0,0,1.0,0,1.0
17,52,'1',0.0057,0.0382,0.07047,260.0,312.0,390.0,0.0,0.0,0.0,0.0,1,2,0.0,1,1.0,0,1.0,0,1.0,0,1.0
18,35,'1',0.00605,0.03642,0.06956,260.0,312.0,390.0,0.0,0.0,0.0,0.0,1,2,0.0,1,1.0,0,1.0,0,1.0,0,1.0
18,52,'1',0.00203,0.01191,0.02399,260.0,312.0,390.0,0.0,0.0,0.0,0.0,1,2,0.0,1,1.0,0,1.0,0,1.0,0,1.0
19,53,'1',0.00116,0.0314,2.6586,758.15,909.78,1137.22,0.0,0.0,0.0,0.0,1,2,0.0,1,1.0,0,1.0,0,1.0,0,1.0
22,45,'1',0.0106,0.0684,0.13505,260.0,312.0,390.0,0.0,0.0,0.0,0.0,1,2,0.0,1,1.0,0,1.0,0,1.0,0,1.0
22,48,'1',0.0112,0.0727,0.14343,260.0,312.0,390.0,0.0,0.0,0.0,0.0,1,1,0.0,1,1.0,0,1.0,0,1.0,0,1.0
22,50,'1',0.00197,0.01283,0.02477,260.0,312.0,390.0,0.0,0.0,0.0,0.0,1,2,0.0,1,1.0,0,1.0,0,1.0,0,1.0
23,632,'TL',0.0001,0.01,0.0,505.0,555.5,606.0,0.0,0.0,0.0,0.0,1,2,0.0,84,1.0,0,1.0,0,1.0,0,1.0
24,36,'1',0.0045,0.0221,0.00642,260.0,312.0,390.0,0.0,0.0,0.0,0.0,1,1,0.0,1,1.0,0,1.0,0,1.0,0,1.0
26,45,'1',0.0034,0.0221,0.04362,260.0,312.0,390.0,0.0,0.0,0.0,0.0,1,2,0.0,1,1.0,0,1.0,0,1.0,0,1.0
27,49,'1',0.04064,0.1642,0.0,260.0,312.0,390.0,0.0,0.0,0.0,0.0,1,1,0.0,1,1.0,0,1.0,0,1.0,0,1.0
27,666,'TL',0.0001,0.01,0.0,154.56,185.47,231.84,0.0,0.0,0.0,0.0,1,2,0.0,82,1.0,0,1.0,0,1.0,0,1.0
28,29,'1',0.523,0.9,0.0,260.0,312.0,390.0,0.0,0.0,0.0,0.0,1,2,0.0,1,1.0,0,1.0,0,1.0,0,1.0
28,33,'1',0.03257,0.26394,0.0,260.0,312.0,390.0,0.0,0.0,0.0,0.0,1,1,0.0,1,1.0,0,1.0,0,1.0,0,1.0
28,44,'1',-0.0656,0.85005,0.0,260.0,312.0,390.0,0.0,0.0,0.0,0.0,1,1,0.0,1,1.0,0,1.0,0,1.0,0,1.0
29,34,'1',0.01598,0.03011,0.0,260.0,312.0,390.0,0.0,0.0,0.0,0.0,1,1,0.0,1,1.0,0,1.0,0,1.0,0,1.0
30,32,'1',0.01265,0.06079,0.0289,260.0,312.0,390.0,0.0,0.0,0.0,0.0,1,1,0.0,1,1.0,0,1.0,0,1.0,0,1.0
30,41,'1',0.0239,0.1186,0.06562,260.0,312.0,390.0,0.0,0.0,0.0,0.0,1,1,0.0,1,1.0,0,1.0,0,1.0,0,1.0
31,43,'1',0.0001,0.001,0.00208,260.0,312.0,390.0,0.0,0.0,0.0,0.0,1,1,0.0,1,1.0,0,1.0,0,1.0,0,1.0
32,609,'TL',0.0001,0.01,0.0,193.83,232.59,290.74,0.0,0.0,0.0,0.0,1,1,0.0,81,1.0,0,1.0,0,1.0,0,1.0
33,44,'1',0.15786,0.7782,0.0,260.0,312.0,390.0,0.0,0.0,0.0,0.0,1,2,0.0,1,1.0,0,1.0,0,1.0,0,1.0
35,42,'1',0.00421,0.0253,0.04874,260.0,312.0,390.0,0.0,0.0,0.0,0.0,1,2,0.0,1,1.0,0,1.0,0,1.0,0,1.0
37,38,'1',0.0044,0.034,0.06751,260.0,312.0,390.0,0.0,0.0,0.0,0.0,1,1,0.0,1,1.0,0,1.0,0,1.0,0,1.0
37,39,'1',0.0049,0.0375,0.07449,429.88,515.85,644.82,0.0,0.0,0.0,0.0,1,2,0.0,1,1.0,0,1.0,0,1.0,0,1.0
38,40,'1',0.0048,0.0569,0.12161,260.0,312.0,390.0,0.0,0.0,0.0,0.0,1,2,0.0,1,1.0,0,1.0,0,1.0,0,1.0
39,43,'1',0.0091,0.0698,0.13869,453.0,498.3,543.6,0.0,0.0,0.0,0.0,1,2,0.0,1,1.0,0,1.0,0,1.0,0,1.0
42,975,'TL',0.0001,0.01,0.0,137.0,150.7,164.4,0.0,0.0,0.0,0.0,1,2,0.0,10,1.0,0,1.0,0,1.0,0,1.0
46,678,'TL',0.0001,0.01,0.0,172.0,189.2,206.4,0.0,0.0,0.0,0.0,1,2,0.0,83,1.0,0,1.0,0,1.0,0,1.0
50,54,'1',0.01244,0.081,0.1561,260.0,312.0,390.0,0.0,0.0,0.0,0.0,1,2,0.0,1,1.0,0,1.0,0,1.0,0,1.0
51,204,'TL',0.0001,0.01,0.0,83.7,98.6,125.55,0.0,0.0,0.0,0.0,1,2,0.0,3,1.0,0,1.0,0,1.0,0,1.0
56,58,'1',0.00033,0.00185,0.00134,154.0,182.0,182.0,0.0,0.0,0.0,0.0,1,2,0.0,1,1.0,0,1.0,0,1.0,0,1.0
56,63,'1',0.00351,0.01972,0.0013,154.0,182.0,182.0,0.0,0.0,0.0,0.0,1,1,0.0,1,1.0,0,1.0,0,1.0,0,1.0
58,67,'1',0.00251,0.00782,0.0022,154.0,182.0,182.0,0.0,0.0,0.0,0.0,1,1,0.0,1,1.0,0,1.0,0,1.0,0,1.0
59,62,'1',0.004,0.0117,0.0013,139.0,163.0,163.0,0.0,0.0,0.0,0.0,1,2,0.0,1,1.0,0,1.0,0,1.0,0,1.0
59,225,'TL',0.0001,0.01,0.0,83.7,98.6,125.55,0.0,0.0,0.0,0.0,1,1,0.0,1,1.0,0,1.0,0,1.0,0,1.0
62,64,'1',0.0046,0.01505,0.00188,83.0,83.0,83.0,0.0,0.0,0.0,0.0,1,2,0.0,1,1.0,0,1.0,0,1.0,0,1.0
62,69,'1',0.0252,0.0825,0.0103,142.0,167.0,167.0,0.0,0.0,0.0,0.0,1,1,0.0,1,1.0,0,1.0,0,1.0,0,1.0
66,67,'1',0.0087,0.02647,0.00222,144.0,169.0,169.0,0.0,0.0,0.0,0.0,1,2,0.0,1,1.0,0,1.0,0,1.0,0,1.0
66,69,'1',0.0262,0.0857,0.0107,142.0,176.0,176.0,0.0,0.0,0.0,0.0,1,2,0.0,1,1.0,0,1.0,0,1.0,0,1.0
66,241,'TL',0.0001,0.01,0.0,83.7,98.6,125.55,0.0,0.0,0.0,0.0,1,2,0.0,2,1.0,0,1.0,0,1.0,0,1.0
72,95,'1',0.0016,0.0179,0.29195,749.15,898.98,1123.72,0.0,0.0,0.0,0.0,1,2,0.0,1,1.0,0,1.0,0,1.0,0,1.0
72,127,'1',0.0011,0.0122,0.2654,654.13,784.95,981.19,0.0,0.0,0.0,0.0,1,2,0.0,1,1.0,0,1.0,0,1.0,0,1.0
74,103,'1',0.0024,0.0113,0.00294,260.0,312.0,390.0,0.0,0.0,0.0,0.0,1,2,0.0,1,1.0,0,1.0,0,1.0,0,1.0
74,103,'2',-0.0148,0.50095,0.0,260.0,312.0,390.0,0.0,0.0,0.0,0.0,1,2,0.0,1,1.0,0,1.0,0,1.0,0,1.0
74,133,'1',0.0189,0.0877,0.02284,260.0,312.0,390.0,0.0,0.0,0.0,0.0,1,2,0.0,1,1.0,0,1.0,0,1.0,0,1.0
74,146,'1',0.018,0.1264,0.04014,260.0,312.0,390.0,0.0,0.0,0.0,0.0,1,2,0.0,1,1.0,0,1.0,0,1.0,0,1.0
75,87,'1',0.0018,0.0232,0.4064,685.32,822.38,1027.98,0.0,0.0,0.0,0.0,1,1,0.0,1,1.0,0,1.0,0,1.0,0,1.0
75,143,'1',0.0013,0.0192,0.335,2010.0,2211.0,2412.0,0.0,0.0,0.0,0.0,1,2,0.0,1,1.0,0,1.0,0,1.0,0,1.0
76,88,'1',0.0014,0.0157,0.29997,260.0,312.0,390.0,0.0,0.0,0.0,0.0,1,2,0.0,1,1.0,0,1.0,0,1.0,0,1.0
77,98,'1',0.0201,0.0815,0.02096,260.0,312.0,390.0,0.0,0.0,0.0,0.0,1,2,0.0,1,1.0,0,1.0,0,1.0,0,1.0
77,122,'1',0.0035,0.0178,0.0,260.0,312.0,390.0,0.0,0.0,0.0,0.0,1,1,0.0,1,1.0,0,1.0,0,1.0,0,1.0
77,122,'2',0.0229,0.41771,0.0,260.0,312.0,390.0,0.0,0.0,0.0,0.0,1,1,0.0,1,1.0,0,1.0,0,1.0,0,1.0
78,128,'1',0.01346,0.05014,0.0125,260.0,312.0,390.0,0.0,0.0,0.0,0.0,1,1,0.0,1,1.0,0,1.0,0,1.0,0,1.0
78,2440,'TL',0.0001,0.01,0.0,228.0,250.8,273.6,0.0,0.0,0.0,0.0,1,2,0.0,78,1.0,0,1.0,0,1.0,0,1.0
79,124,'1',0.0001,0.001,0.0,260.0,312.0,390.0,0.0,0.0,0.0,0.0,1,2,0.0,1,1.0,0,1.0,0,1.0,0,1.0
81,85,'1',0.031,0.1441,0.0334,260.0,312.0,390.0,0.0,0.0,0.0,0.0,1,1,0.0,1,1.0,0,1.0,0,1.0,0,1.0
81,103,'1',0.0085,0.0394,0.01026,260.0,312.0,390.0,0.0,0.0,0.0,0.0,1,1,0.0,1,1.0,0,1.0,0,1.0,0,1.0
81,147,'1',0.0404,0.1952,0.04559,260.0,312.0,390.0,0.0,0.0,0.0,0.0,1,1,0.0,1,1.0,0,1.0,0,1.0,0,1.0
83,104,'1',0.00065,0.00725,0.138,565.76,678.91,848.64,0.0,0.0,0.0,0.0,1,1,0.0,1,1.0,0,1.0,0,1.0,0,1.0
83,108,'1',0.00065,0.00725,0.138,574.22,689.07,861.33,0.0,0.0,0.0,0.0,1,1,0.0,1,1.0,0,1.0,0,1.0,0,1.0
84,93,'1',0.00224,0.02578,0.26437,1046.0,1466.0,1466.0,0.0,0.0,0.0,0.0,1,1,0.0,1,1.0,0,1.0,0,1.0,0,1.0
84,142,'1',0.00067,0.00772,0.07922,1046.0,1466.0,1466.0,0.0,0.0,0.0,0.0,1,1,0.0,1,1.0,0,1.0,0,1.0,0,1.0
85,90,'1',0.0131,0.0609,0.01586,260.0,312.0,390.0,0.0,0.0,0.0,0.0,1,1,0.0,1,1.0,0,1.0,0,1.0,0,1.0
85,94,'1',0.0056,0.0418,0.01167,260.0,312.0,390.0,0.0,0.0,0.0,0.0,1,2,0.0,1,1.0,0,1.0,0,1.0,0,1.0
85,150,'1',0.0131,0.0609,0.01586,260.0,312.0,390.0,0.0,0.0,0.0,0.0,1,1,0.0,1,1.0,0,1.0,0,1.0,0,1.0
86,94,'1',0.0052,0.0393,0.01144,260.0,312.0,390.0,0.0,0.0,0.0,0.0,1,2,0.0,1,1.0,0,1.0,0,1.0,0,1.0
86,148,'1',0.0027,0.0198,0.0063,260.0,312.0,390.0,0.0,0.0,0.0,0.0,1,2,0.0,1,1.0,0,1.0,0,1.0,0,1.0
88,89,'1',0.0024,0.026,0.43493,260.0,312.0,390.0,0.0,0.0,0.0,0.0,1,2,0.0,1,1.0,0,1.0,0,1.0,0,1.0
88,143,'1',0.0016,0.0182,0.3036,566.0,622.6,679.2,0.0,0.0,0.0,0.0,1,1,0.0,1,1.0,0,1.0,0,1.0,0,1.0
91,139,'1',0.0043,0.0196,0.0051,260.0,312.0,390.0,0.0,0.0,0.0,0.0,1,1,0.0,1,1.0,0,1.0,0,1.0,0,1.0
91,150,'1',0.01,0.0462,0.01204,260.0,312.0,390.0,0.0,0.0,0.0,0.0,1,2,0.0,1,1.0,0,1.0,0,1.0,0,1.0
92,110,'1',0.0001,0.001,0.0,260.0,312.0,390.0,0.0,0.0,0.0,0.0,1,2,0.0,1,1.0,0,1.0,0,1.0,0,1.0
92,133,'1',0.006,0.0478,0.01272,260.0,312.0,390.0,0.0,0.0,0.0,0.0,1,2,0.0,1,1.0,0,1.0,0,1.0,0,1.0
92,2634,'TL',0.0001,0.01,0.0,83.7,98.6,125.55,0.0,0.0,0.0,0.0,1,1,0.0,76,1.0,0,1.0,0,1.0,0,1.0
93,113,'1',0.00258,0.029,0.2982,1046.0,1361.0,1361.0,0.0,0.0,0.0,0.0,1,2,0.0,1,1.0,0,1.0,0,1.0,0,1.0
93,127,'1',0.0007,0.0074,0.07651,1568.0,1760.0,1760.0,0.0,0.0,0.0,0.0,1,1,0.0,1,1.0,0,1.0,0,1.0,0,1.0
95,137,'1',0.0009,0.01,0.19176,964.64,1157.56,1446.96,0.0,0.0,0.0,0.0,1,2,0.0,1,1.0,0,1.0,0,1.0,0,1.0
96,134,'1',0.0063,0.0477,0.01332,260.0,312.0,390.0,0.0,0.0,0.0,0.0,1,2,0.0,1,1.0,0,1.0,0,1.0,0,1.0
96,2557,'TL',0.0001,0.01,0.0,116.0,127.6,139.2,0.0,0.0,0.0,0.0,1,2,0.0,80,1.0,0,1.0,0,1.0,0,1.0
...